.SUBCKT GALI-74+___80mA___Plus85degC  1 2 3
* Pin 3 is the reference plane (usually it should be connected to GND)
* Mini-Circuits
* S2P DATA File Format
* Type: MMIC Amplifier
* Model: GALI-74+
* TEST CONDITIONS: INPUT POWER = -20dBm, Icc = 80mA, Vd = 4.70V @Temperature = +85degC
* 401 Frequency points
*
* S Parameters are in dB deg format
*
*    FREQ       dB(S11)   PHS(S11)  dB(S21)   PHS(S21)  dB(S12)   PHS(S12)  dB(S22)   PHS(S22)
* MHZ S DB R 50
* Z1 = 50 Z2 = 50
R1N 1 100 -5.000000e+01
R1P 100 3 100.000000
R2N 2 200 -5.000000e+01
R2P 200 3 100.000000

* S11 FREQ DB
 G0101 3 100 FREQ {V(100,3)}= DB
+(  5.000000e+07Hz, -6.714600e+01, -1.782560e+02)
+(  6.000000e+07Hz, -6.770600e+01, -1.768610e+02)
+(  7.000000e+07Hz, -6.727900e+01, -1.745840e+02)
+(  8.000000e+07Hz, -6.672900e+01, -1.768250e+02)
+(  9.500000e+07Hz, -6.590300e+01, -1.792370e+02)
+(  1.050000e+08Hz, -6.571100e+01, -1.793550e+02)
+(  1.200000e+08Hz, -6.548000e+01, -1.775710e+02)
+(  1.300000e+08Hz, -6.508600e+01, -1.763440e+02)
+(  1.450000e+08Hz, -6.486200e+01, -1.764410e+02)
+(  1.550000e+08Hz, -6.450800e+01, -1.768720e+02)
+(  1.700000e+08Hz, -6.444300e+01, -1.770290e+02)
+(  1.800000e+08Hz, -6.403300e+01, -1.775130e+02)
+(  1.950000e+08Hz, -6.400300e+01, -1.792020e+02)
+(  2.050000e+08Hz, -6.386200e+01,  1.799040e+02)
+(  2.200000e+08Hz, -6.381600e+01, -1.791360e+02)
+(  2.300000e+08Hz, -6.371100e+01, -1.783360e+02)
+(  2.450000e+08Hz, -6.345400e+01, -1.787040e+02)
+(  2.550000e+08Hz, -6.364600e+01, -1.784540e+02)
+(  2.700000e+08Hz, -6.351500e+01, -1.780070e+02)
+(  2.800000e+08Hz, -6.349000e+01, -1.774180e+02)
+(  2.950000e+08Hz, -6.360100e+01, -1.787400e+02)
+(  3.050000e+08Hz, -6.364500e+01, -1.784840e+02)
+(  3.200000e+08Hz, -6.373000e+01, -1.799510e+02)
+(  3.300000e+08Hz, -6.366700e+01, -1.796620e+02)
+(  3.450000e+08Hz, -6.363000e+01,  1.797330e+02)
+(  3.550000e+08Hz, -6.361600e+01,  1.790280e+02)
+(  3.700000e+08Hz, -6.350500e+01,  1.794490e+02)
+(  3.800000e+08Hz, -6.352800e+01,  1.797120e+02)
+(  3.950000e+08Hz, -6.365700e+01,  1.794210e+02)
+(  4.050000e+08Hz, -6.365000e+01,  1.789410e+02)
+(  4.200000e+08Hz, -6.366800e+01,  1.782240e+02)
+(  4.300000e+08Hz, -6.349100e+01,  1.773100e+02)
+(  4.450000e+08Hz, -6.333500e+01,  1.759880e+02)
+(  4.550000e+08Hz, -6.332500e+01,  1.765220e+02)
+(  4.700000e+08Hz, -6.322600e+01,  1.756920e+02)
+(  4.800000e+08Hz, -6.314800e+01,  1.750300e+02)
+(  4.950000e+08Hz, -6.319900e+01,  1.751970e+02)
+(  5.050000e+08Hz, -6.306900e+01,  1.742590e+02)
+(  5.200000e+08Hz, -6.295100e+01,  1.730440e+02)
+(  5.300000e+08Hz, -6.292300e+01,  1.736680e+02)
+(  5.450000e+08Hz, -6.281500e+01,  1.720770e+02)
+(  5.550000e+08Hz, -6.283800e+01,  1.714870e+02)
+(  5.700000e+08Hz, -6.276800e+01,  1.709960e+02)
+(  5.800000e+08Hz, -6.268600e+01,  1.701790e+02)
+(  5.950000e+08Hz, -6.265800e+01,  1.702020e+02)
+(  6.050000e+08Hz, -6.267300e+01,  1.693750e+02)
+(  6.200000e+08Hz, -6.258500e+01,  1.690070e+02)
+(  6.300000e+08Hz, -6.258800e+01,  1.688630e+02)
+(  6.450000e+08Hz, -6.246900e+01,  1.680450e+02)
+(  6.550000e+08Hz, -6.236400e+01,  1.673720e+02)
+(  6.700000e+08Hz, -6.233800e+01,  1.668260e+02)
+(  6.800000e+08Hz, -6.240400e+01,  1.664160e+02)
+(  6.950000e+08Hz, -6.235100e+01,  1.660200e+02)
+(  7.050000e+08Hz, -6.237300e+01,  1.647280e+02)
+(  7.200000e+08Hz, -6.227600e+01,  1.648290e+02)
+(  7.300000e+08Hz, -6.234100e+01,  1.649950e+02)
+(  7.450000e+08Hz, -6.227700e+01,  1.641930e+02)
+(  7.550000e+08Hz, -6.221200e+01,  1.636220e+02)
+(  7.700000e+08Hz, -6.218900e+01,  1.626220e+02)
+(  7.800000e+08Hz, -6.211000e+01,  1.625380e+02)
+(  7.950000e+08Hz, -6.200000e+01,  1.618790e+02)
+(  8.050000e+08Hz, -6.192100e+01,  1.615420e+02)
+(  8.200000e+08Hz, -6.187600e+01,  1.602200e+02)
+(  8.300000e+08Hz, -6.183500e+01,  1.596580e+02)
+(  8.450000e+08Hz, -6.184200e+01,  1.596760e+02)
+(  8.550000e+08Hz, -6.182200e+01,  1.594070e+02)
+(  8.700000e+08Hz, -6.173700e+01,  1.596670e+02)
+(  8.800000e+08Hz, -6.165300e+01,  1.586800e+02)
+(  8.950000e+08Hz, -6.156200e+01,  1.579480e+02)
+(  9.050000e+08Hz, -6.149300e+01,  1.570970e+02)
+(  9.200000e+08Hz, -6.137500e+01,  1.563450e+02)
+(  9.300000e+08Hz, -6.131300e+01,  1.552550e+02)
+(  9.450000e+08Hz, -6.117900e+01,  1.555370e+02)
+(  9.550000e+08Hz, -6.116900e+01,  1.545320e+02)
+(  9.700000e+08Hz, -6.115500e+01,  1.541820e+02)
+(  9.800000e+08Hz, -6.101900e+01,  1.536290e+02)
+(  9.950000e+08Hz, -6.100900e+01,  1.523240e+02)
+(  1.005000e+09Hz, -6.098000e+01,  1.519310e+02)
+(  1.020000e+09Hz, -6.088300e+01,  1.507130e+02)
+(  1.030000e+09Hz, -6.074600e+01,  1.504090e+02)
+(  1.045000e+09Hz, -6.064200e+01,  1.499320e+02)
+(  1.055000e+09Hz, -6.063100e+01,  1.492240e+02)
+(  1.070000e+09Hz, -6.056400e+01,  1.479850e+02)
+(  1.080000e+09Hz, -6.049900e+01,  1.473960e+02)
+(  1.110000e+09Hz, -6.058700e+01,  1.450300e+02)
+(  1.130000e+09Hz, -6.028000e+01,  1.414180e+02)
+(  1.160000e+09Hz, -5.974800e+01,  1.428200e+02)
+(  1.180000e+09Hz, -6.023400e+01,  1.424820e+02)
+(  1.210000e+09Hz, -5.995800e+01,  1.373220e+02)
+(  1.230000e+09Hz, -5.949700e+01,  1.377910e+02)
+(  1.260000e+09Hz, -5.975300e+01,  1.368300e+02)
+(  1.280000e+09Hz, -5.960700e+01,  1.330540e+02)
+(  1.310000e+09Hz, -5.901200e+01,  1.326840e+02)
+(  1.330000e+09Hz, -5.926700e+01,  1.329800e+02)
+(  1.360000e+09Hz, -5.915200e+01,  1.267430e+02)
+(  1.380000e+09Hz, -5.866900e+01,  1.260840e+02)
+(  1.410000e+09Hz, -5.878200e+01,  1.265080e+02)
+(  1.430000e+09Hz, -5.875600e+01,  1.224280e+02)
+(  1.460000e+09Hz, -5.836500e+01,  1.207170e+02)
+(  1.480000e+09Hz, -5.840100e+01,  1.204620e+02)
+(  1.510000e+09Hz, -5.843700e+01,  1.157400e+02)
+(  1.530000e+09Hz, -5.804000e+01,  1.143570e+02)
+(  1.560000e+09Hz, -5.802700e+01,  1.151670e+02)
+(  1.580000e+09Hz, -5.814300e+01,  1.126170e+02)
+(  1.610000e+09Hz, -5.764800e+01,  1.091290e+02)
+(  1.630000e+09Hz, -5.751300e+01,  1.095870e+02)
+(  1.660000e+09Hz, -5.764600e+01,  1.060800e+02)
+(  1.680000e+09Hz, -5.741400e+01,  1.035290e+02)
+(  1.710000e+09Hz, -5.720900e+01,  1.031260e+02)
+(  1.730000e+09Hz, -5.735800e+01,  1.016980e+02)
+(  1.760000e+09Hz, -5.701700e+01,  9.782000e+01)
+(  1.780000e+09Hz, -5.682000e+01,  9.718000e+01)
+(  1.810000e+09Hz, -5.694500e+01,  9.465600e+01)
+(  1.830000e+09Hz, -5.678900e+01,  9.189700e+01)
+(  1.860000e+09Hz, -5.643600e+01,  9.160800e+01)
+(  1.880000e+09Hz, -5.652000e+01,  9.000700e+01)
+(  1.910000e+09Hz, -5.634300e+01,  8.614900e+01)
+(  1.930000e+09Hz, -5.614600e+01,  8.559900e+01)
+(  1.960000e+09Hz, -5.616500e+01,  8.349500e+01)
+(  1.980000e+09Hz, -5.596800e+01,  8.104700e+01)
+(  2.010000e+09Hz, -5.583300e+01,  7.884000e+01)
+(  2.030000e+09Hz, -5.581200e+01,  7.761400e+01)
+(  2.060000e+09Hz, -5.577800e+01,  7.413800e+01)
+(  2.080000e+09Hz, -5.569200e+01,  7.307600e+01)
+(  2.110000e+09Hz, -5.554900e+01,  7.145500e+01)
+(  2.130000e+09Hz, -5.552900e+01,  6.960700e+01)
+(  2.160000e+09Hz, -5.525600e+01,  6.747800e+01)
+(  2.180000e+09Hz, -5.529500e+01,  6.641500e+01)
+(  2.210000e+09Hz, -5.519400e+01,  6.304000e+01)
+(  2.230000e+09Hz, -5.498600e+01,  6.163500e+01)
+(  2.260000e+09Hz, -5.484400e+01,  6.027000e+01)
+(  2.280000e+09Hz, -5.490500e+01,  5.857000e+01)
+(  2.310000e+09Hz, -5.474100e+01,  5.561600e+01)
+(  2.330000e+09Hz, -5.469500e+01,  5.454500e+01)
+(  2.360000e+09Hz, -5.462200e+01,  5.179200e+01)
+(  2.380000e+09Hz, -5.452600e+01,  5.009600e+01)
+(  2.410000e+09Hz, -5.441900e+01,  4.833900e+01)
+(  2.430000e+09Hz, -5.441900e+01,  4.657800e+01)
+(  2.460000e+09Hz, -5.420300e+01,  4.409700e+01)
+(  2.480000e+09Hz, -5.415900e+01,  4.289000e+01)
+(  2.510000e+09Hz, -5.408700e+01,  4.033900e+01)
+(  2.530000e+09Hz, -5.400300e+01,  3.864500e+01)
+(  2.560000e+09Hz, -5.393800e+01,  3.639600e+01)
+(  2.580000e+09Hz, -5.395200e+01,  3.476300e+01)
+(  2.610000e+09Hz, -5.377500e+01,  3.224500e+01)
+(  2.630000e+09Hz, -5.373000e+01,  3.087100e+01)
+(  2.660000e+09Hz, -5.367400e+01,  2.769700e+01)
+(  2.680000e+09Hz, -5.359000e+01,  2.677200e+01)
+(  2.710000e+09Hz, -5.353300e+01,  2.405600e+01)
+(  2.730000e+09Hz, -5.351200e+01,  2.244300e+01)
+(  2.760000e+09Hz, -5.352700e+01,  2.008700e+01)
+(  2.780000e+09Hz, -5.343200e+01,  1.825900e+01)
+(  2.810000e+09Hz, -5.329300e+01,  1.554500e+01)
+(  2.830000e+09Hz, -5.330800e+01,  1.466400e+01)
+(  2.860000e+09Hz, -5.323800e+01,  1.279400e+01)
+(  2.880000e+09Hz, -5.322300e+01,  1.049300e+01)
+(  2.910000e+09Hz, -5.313600e+01,  7.839000e+00)
+(  2.930000e+09Hz, -5.307000e+01,  6.030000e+00)
+(  2.960000e+09Hz, -5.300200e+01,  3.867000e+00)
+(  2.980000e+09Hz, -5.290100e+01,  2.087000e+00)
+(  3.010000e+09Hz, -5.294500e+01, -5.310000e-01)
+(  3.030000e+09Hz, -5.294200e+01, -2.692000e+00)
+(  3.060000e+09Hz, -5.277500e+01, -4.328000e+00)
+(  3.080000e+09Hz, -5.280300e+01, -5.862000e+00)
+(  3.110000e+09Hz, -5.278600e+01, -8.903000e+00)
+(  3.130000e+09Hz, -5.274600e+01, -1.022200e+01)
+(  3.160000e+09Hz, -5.271800e+01, -1.257100e+01)
+(  3.180000e+09Hz, -5.265200e+01, -1.420700e+01)
+(  3.210000e+09Hz, -5.253700e+01, -1.616700e+01)
+(  3.230000e+09Hz, -5.254100e+01, -1.781300e+01)
+(  3.260000e+09Hz, -5.248400e+01, -2.143500e+01)
+(  3.280000e+09Hz, -5.234900e+01, -2.263900e+01)
+(  3.310000e+09Hz, -5.244800e+01, -2.460500e+01)
+(  3.330000e+09Hz, -5.241300e+01, -2.753600e+01)
+(  3.360000e+09Hz, -5.229800e+01, -2.970700e+01)
+(  3.380000e+09Hz, -5.236200e+01, -3.124200e+01)
+(  3.410000e+09Hz, -5.233300e+01, -3.377600e+01)
+(  3.430000e+09Hz, -5.227600e+01, -3.568300e+01)
+(  3.460000e+09Hz, -5.227000e+01, -3.762600e+01)
+(  3.480000e+09Hz, -5.232000e+01, -4.052900e+01)
+(  3.510000e+09Hz, -5.218500e+01, -4.259000e+01)
+(  3.530000e+09Hz, -5.217200e+01, -4.362400e+01)
+(  3.560000e+09Hz, -5.229000e+01, -4.670400e+01)
+(  3.580000e+09Hz, -5.219100e+01, -4.872100e+01)
+(  3.610000e+09Hz, -5.213100e+01, -5.094100e+01)
+(  3.630000e+09Hz, -5.215800e+01, -5.274500e+01)
+(  3.660000e+09Hz, -5.206500e+01, -5.584000e+01)
+(  3.680000e+09Hz, -5.212500e+01, -5.726900e+01)
+(  3.710000e+09Hz, -5.217100e+01, -6.013800e+01)
+(  3.730000e+09Hz, -5.208900e+01, -6.214500e+01)
+(  3.760000e+09Hz, -5.204700e+01, -6.409600e+01)
+(  3.780000e+09Hz, -5.214900e+01, -6.608600e+01)
+(  3.810000e+09Hz, -5.212300e+01, -6.943900e+01)
+(  3.830000e+09Hz, -5.199000e+01, -7.074600e+01)
+(  3.860000e+09Hz, -5.205500e+01, -7.303600e+01)
+(  3.880000e+09Hz, -5.206100e+01, -7.550100e+01)
+(  3.910000e+09Hz, -5.203400e+01, -7.859700e+01)
+(  3.930000e+09Hz, -5.206200e+01, -8.006500e+01)
+(  3.960000e+09Hz, -5.203800e+01, -8.316600e+01)
+(  3.980000e+09Hz, -5.196300e+01, -8.472200e+01)
+(  4.010000e+09Hz, -5.201400e+01, -8.751200e+01)
+(  4.030000e+09Hz, -5.209600e+01, -9.001900e+01)
+(  4.060000e+09Hz, -5.195500e+01, -9.306900e+01)
+(  4.080000e+09Hz, -5.201700e+01, -9.455300e+01)
+(  4.110000e+09Hz, -5.210900e+01, -9.791600e+01)
+(  4.130000e+09Hz, -5.200700e+01, -1.001230e+02)
+(  4.160000e+09Hz, -5.207900e+01, -1.025170e+02)
+(  4.180000e+09Hz, -5.208700e+01, -1.044610e+02)
+(  4.210000e+09Hz, -5.198700e+01, -1.074760e+02)
+(  4.230000e+09Hz, -5.200500e+01, -1.095170e+02)
+(  4.260000e+09Hz, -5.217800e+01, -1.132930e+02)
+(  4.280000e+09Hz, -5.206200e+01, -1.154530e+02)
+(  4.310000e+09Hz, -5.204300e+01, -1.176370e+02)
+(  4.330000e+09Hz, -5.212600e+01, -1.201930e+02)
+(  4.360000e+09Hz, -5.205100e+01, -1.238130e+02)
+(  4.380000e+09Hz, -5.210500e+01, -1.257120e+02)
+(  4.410000e+09Hz, -5.217700e+01, -1.291060e+02)
+(  4.430000e+09Hz, -5.214500e+01, -1.314240e+02)
+(  4.460000e+09Hz, -5.217400e+01, -1.335200e+02)
+(  4.480000e+09Hz, -5.221300e+01, -1.363570e+02)
+(  4.510000e+09Hz, -5.211500e+01, -1.398200e+02)
+(  4.530000e+09Hz, -5.215100e+01, -1.411970e+02)
+(  4.560000e+09Hz, -5.219300e+01, -1.448090e+02)
+(  4.580000e+09Hz, -5.216600e+01, -1.474600e+02)
+(  4.610000e+09Hz, -5.211600e+01, -1.506060e+02)
+(  4.630000e+09Hz, -5.214300e+01, -1.528870e+02)
+(  4.660000e+09Hz, -5.211400e+01, -1.563500e+02)
+(  4.680000e+09Hz, -5.214100e+01, -1.580120e+02)
+(  4.710000e+09Hz, -5.217600e+01, -1.615890e+02)
+(  4.730000e+09Hz, -5.212600e+01, -1.645380e+02)
+(  4.760000e+09Hz, -5.200000e+01, -1.670190e+02)
+(  4.780000e+09Hz, -5.211000e+01, -1.694910e+02)
+(  4.810000e+09Hz, -5.213000e+01, -1.734790e+02)
+(  4.830000e+09Hz, -5.203400e+01, -1.759990e+02)
+(  4.860000e+09Hz, -5.206700e+01, -1.790150e+02)
+(  4.880000e+09Hz, -5.205600e+01,  1.787170e+02)
+(  4.910000e+09Hz, -5.206000e+01,  1.753870e+02)
+(  4.930000e+09Hz, -5.207800e+01,  1.736850e+02)
+(  4.960000e+09Hz, -5.211000e+01,  1.699480e+02)
+(  4.980000e+09Hz, -5.198400e+01,  1.676240e+02)
+(  5.010000e+09Hz, -5.199200e+01,  1.645920e+02)
+(  5.030000e+09Hz, -5.198000e+01,  1.620600e+02)
+(  5.060000e+09Hz, -5.194400e+01,  1.585320e+02)
+(  5.080000e+09Hz, -5.194300e+01,  1.562700e+02)
+(  5.110000e+09Hz, -5.194000e+01,  1.526060e+02)
+(  5.130000e+09Hz, -5.195600e+01,  1.504590e+02)
+(  5.160000e+09Hz, -5.184700e+01,  1.473750e+02)
+(  5.180000e+09Hz, -5.184600e+01,  1.449530e+02)
+(  5.210000e+09Hz, -5.184600e+01,  1.416050e+02)
+(  5.230000e+09Hz, -5.179900e+01,  1.394270e+02)
+(  5.260000e+09Hz, -5.174900e+01,  1.360670e+02)
+(  5.280000e+09Hz, -5.173600e+01,  1.336570e+02)
+(  5.310000e+09Hz, -5.171500e+01,  1.301540e+02)
+(  5.330000e+09Hz, -5.165600e+01,  1.280980e+02)
+(  5.360000e+09Hz, -5.167600e+01,  1.247180e+02)
+(  5.380000e+09Hz, -5.167000e+01,  1.223970e+02)
+(  5.410000e+09Hz, -5.157700e+01,  1.191200e+02)
+(  5.430000e+09Hz, -5.159800e+01,  1.168780e+02)
+(  5.460000e+09Hz, -5.157200e+01,  1.133370e+02)
+(  5.480000e+09Hz, -5.151300e+01,  1.108050e+02)
+(  5.510000e+09Hz, -5.148300e+01,  1.075680e+02)
+(  5.530000e+09Hz, -5.145400e+01,  1.050460e+02)
+(  5.560000e+09Hz, -5.140600e+01,  1.015720e+02)
+(  5.580000e+09Hz, -5.139000e+01,  9.976200e+01)
+(  5.610000e+09Hz, -5.141600e+01,  9.650700e+01)
+(  5.630000e+09Hz, -5.133700e+01,  9.395900e+01)
+(  5.660000e+09Hz, -5.128800e+01,  9.049400e+01)
+(  5.680000e+09Hz, -5.132100e+01,  8.805100e+01)
+(  5.710000e+09Hz, -5.123700e+01,  8.474900e+01)
+(  5.730000e+09Hz, -5.123500e+01,  8.293400e+01)
+(  5.760000e+09Hz, -5.128100e+01,  7.949500e+01)
+(  5.780000e+09Hz, -5.126200e+01,  7.691200e+01)
+(  5.810000e+09Hz, -5.118500e+01,  7.322400e+01)
+(  5.830000e+09Hz, -5.120900e+01,  7.113200e+01)
+(  5.860000e+09Hz, -5.119600e+01,  6.746700e+01)
+(  5.880000e+09Hz, -5.117100e+01,  6.541600e+01)
+(  5.910000e+09Hz, -5.120900e+01,  6.183300e+01)
+(  5.930000e+09Hz, -5.115500e+01,  5.897700e+01)
+(  5.960000e+09Hz, -5.107700e+01,  5.554100e+01)
+(  5.980000e+09Hz, -5.109600e+01,  5.325000e+01)
+(  6.010000e+09Hz, -5.104600e+01,  4.920600e+01)
+(  6.030000e+09Hz, -5.100900e+01,  4.680900e+01)
+(  6.060000e+09Hz, -5.101000e+01,  4.349300e+01)
+(  6.080000e+09Hz, -5.096200e+01,  4.092400e+01)
+(  6.110000e+09Hz, -5.092400e+01,  3.748500e+01)
+(  6.130000e+09Hz, -5.092400e+01,  3.519700e+01)
+(  6.160000e+09Hz, -5.089800e+01,  3.128300e+01)
+(  6.180000e+09Hz, -5.085500e+01,  2.914300e+01)
+(  6.210000e+09Hz, -5.083700e+01,  2.533700e+01)
+(  6.230000e+09Hz, -5.081500e+01,  2.280300e+01)
+(  6.260000e+09Hz, -5.073300e+01,  1.946300e+01)
+(  6.280000e+09Hz, -5.075500e+01,  1.705000e+01)
+(  6.310000e+09Hz, -5.070900e+01,  1.314700e+01)
+(  6.330000e+09Hz, -5.066100e+01,  1.086500e+01)
+(  6.360000e+09Hz, -5.066200e+01,  7.585000e+00)
+(  6.380000e+09Hz, -5.065400e+01,  4.837000e+00)
+(  6.410000e+09Hz, -5.061800e+01,  1.121000e+00)
+(  6.430000e+09Hz, -5.064200e+01, -1.346000e+00)
+(  6.460000e+09Hz, -5.059000e+01, -5.085000e+00)
+(  6.480000e+09Hz, -5.050800e+01, -7.279000e+00)
+(  6.510000e+09Hz, -5.048300e+01, -1.053400e+01)
+(  6.530000e+09Hz, -5.047100e+01, -1.342500e+01)
+(  6.560000e+09Hz, -5.038000e+01, -1.749800e+01)
+(  6.580000e+09Hz, -5.032300e+01, -1.967900e+01)
+(  6.610000e+09Hz, -5.032100e+01, -2.333200e+01)
+(  6.630000e+09Hz, -5.027600e+01, -2.585100e+01)
+(  6.660000e+09Hz, -5.025800e+01, -2.938900e+01)
+(  6.680000e+09Hz, -5.026200e+01, -3.193100e+01)
+(  6.710000e+09Hz, -5.013800e+01, -3.577700e+01)
+(  6.730000e+09Hz, -5.006500e+01, -3.787500e+01)
+(  6.760000e+09Hz, -5.011100e+01, -4.183500e+01)
+(  6.780000e+09Hz, -5.003100e+01, -4.459300e+01)
+(  6.810000e+09Hz, -4.995800e+01, -4.770900e+01)
+(  6.830000e+09Hz, -4.997600e+01, -5.007300e+01)
+(  6.860000e+09Hz, -4.990000e+01, -5.385900e+01)
+(  6.880000e+09Hz, -4.983600e+01, -5.625400e+01)
+(  6.910000e+09Hz, -4.978500e+01, -5.969000e+01)
+(  6.930000e+09Hz, -4.975900e+01, -6.229300e+01)
+(  6.960000e+09Hz, -4.972800e+01, -6.553800e+01)
+(  6.980000e+09Hz, -4.971000e+01, -6.787000e+01)
+(  7.010000e+09Hz, -4.964200e+01, -7.191300e+01)
+(  7.030000e+09Hz, -4.951600e+01, -7.415600e+01)
+(  7.060000e+09Hz, -4.951100e+01, -7.715900e+01)
+(  7.080000e+09Hz, -4.951100e+01, -7.979300e+01)
+(  7.110000e+09Hz, -4.937200e+01, -8.368900e+01)
+(  7.130000e+09Hz, -4.932400e+01, -8.549900e+01)
+(  7.160000e+09Hz, -4.928700e+01, -8.914200e+01)
+(  7.180000e+09Hz, -4.927300e+01, -9.145900e+01)
+(  7.210000e+09Hz, -4.923700e+01, -9.498100e+01)
+(  7.230000e+09Hz, -4.918000e+01, -9.720500e+01)
+(  7.260000e+09Hz, -4.904700e+01, -1.007790e+02)
+(  7.280000e+09Hz, -4.903200e+01, -1.026710e+02)
+(  7.310000e+09Hz, -4.907400e+01, -1.061420e+02)
+(  7.330000e+09Hz, -4.902100e+01, -1.087800e+02)
+(  7.360000e+09Hz, -4.890000e+01, -1.118800e+02)
+(  7.380000e+09Hz, -4.885600e+01, -1.137620e+02)
+(  7.410000e+09Hz, -4.885800e+01, -1.169780e+02)
+(  7.430000e+09Hz, -4.884300e+01, -1.194460e+02)
+(  7.460000e+09Hz, -4.876700e+01, -1.227690e+02)
+(  7.480000e+09Hz, -4.867700e+01, -1.249750e+02)
+(  7.510000e+09Hz, -4.863800e+01, -1.280540e+02)
+(  7.530000e+09Hz, -4.866400e+01, -1.302440e+02)
+(  7.560000e+09Hz, -4.861800e+01, -1.338350e+02)
+(  7.580000e+09Hz, -4.854000e+01, -1.362150e+02)
+(  7.610000e+09Hz, -4.846400e+01, -1.388230e+02)
+(  7.630000e+09Hz, -4.844900e+01, -1.407830e+02)
+(  7.660000e+09Hz, -4.842700e+01, -1.444320e+02)
+(  7.680000e+09Hz, -4.836700e+01, -1.467020e+02)
+(  7.710000e+09Hz, -4.826200e+01, -1.497950e+02)
+(  7.730000e+09Hz, -4.827500e+01, -1.518590e+02)
+(  7.760000e+09Hz, -4.829300e+01, -1.552370e+02)
+(  7.780000e+09Hz, -4.827000e+01, -1.574180e+02)
+(  7.810000e+09Hz, -4.818400e+01, -1.605450e+02)
+(  7.830000e+09Hz, -4.814800e+01, -1.624520e+02)
+(  7.860000e+09Hz, -4.814500e+01, -1.651980e+02)
+(  7.880000e+09Hz, -4.813500e+01, -1.675570e+02)
+(  7.910000e+09Hz, -4.805500e+01, -1.712230e+02)
+(  7.930000e+09Hz, -4.800300e+01, -1.731170e+02)
+(  7.960000e+09Hz, -4.799900e+01, -1.755840e+02)
+(  7.980000e+09Hz, -4.801600e+01, -1.775500e+02)
+(  8.010000e+09Hz, -4.792800e+01,  1.789900e+02)
+(  8.030000e+09Hz, -4.785300e+01,  1.769330e+02)
+(  8.060000e+09Hz, -4.780000e+01,  1.740290e+02)
+(  8.080000e+09Hz, -4.777400e+01,  1.719730e+02)
+(  8.110000e+09Hz, -4.776900e+01,  1.688280e+02)
+(  8.130000e+09Hz, -4.775500e+01,  1.664250e+02)
+(  8.160000e+09Hz, -4.769200e+01,  1.636200e+02)
+(  8.180000e+09Hz, -4.762200e+01,  1.620130e+02)
+(  8.210000e+09Hz, -4.761600e+01,  1.589130e+02)
+(  8.230000e+09Hz, -4.760100e+01,  1.566290e+02)
+(  8.260000e+09Hz, -4.752200e+01,  1.537080e+02)
+(  8.280000e+09Hz, -4.750000e+01,  1.519580e+02)
+(  8.310000e+09Hz, -4.747300e+01,  1.489730e+02)
+(  8.330000e+09Hz, -4.744200e+01,  1.468940e+02)
+(  8.360000e+09Hz, -4.738000e+01,  1.437260e+02)
+(  8.380000e+09Hz, -4.737200e+01,  1.417220e+02)
+(  8.410000e+09Hz, -4.733200e+01,  1.389590e+02)
+(  8.430000e+09Hz, -4.731500e+01,  1.371130e+02)
+(  8.460000e+09Hz, -4.730800e+01,  1.338500e+02)
+(  8.480000e+09Hz, -4.726200e+01,  1.320820e+02)
+(  8.510000e+09Hz, -4.719700e+01,  1.295930e+02)
+(  8.530000e+09Hz, -4.716000e+01,  1.275790e+02)
+(  8.560000e+09Hz, -4.714800e+01,  1.242290e+02)
+(  8.580000e+09Hz, -4.713500e+01,  1.222860e+02)
+(  8.610000e+09Hz, -4.709600e+01,  1.197110e+02)
+(  8.630000e+09Hz, -4.706300e+01,  1.181300e+02)
+(  8.660000e+09Hz, -4.704000e+01,  1.151420e+02)
+(  8.680000e+09Hz, -4.701000e+01,  1.133710e+02)
+(  8.710000e+09Hz, -4.696200e+01,  1.106640e+02)
+(  8.730000e+09Hz, -4.691100e+01,  1.086310e+02)
+(  8.760000e+09Hz, -4.684400e+01,  1.059610e+02)
+(  8.780000e+09Hz, -4.685000e+01,  1.040650e+02)
+(  8.810000e+09Hz, -4.679300e+01,  1.013920e+02)
+(  8.830000e+09Hz, -4.676400e+01,  9.961400e+01)
+(  8.860000e+09Hz, -4.675600e+01,  9.714600e+01)
+(  8.880000e+09Hz, -4.676100e+01,  9.519100e+01)
+(  8.910000e+09Hz, -4.663400e+01,  9.241300e+01)
+(  8.930000e+09Hz, -4.657300e+01,  9.078500e+01)
+(  8.960000e+09Hz, -4.657200e+01,  8.794300e+01)
+(  8.980000e+09Hz, -4.654400e+01,  8.616900e+01)
+(  9.010000e+09Hz, -4.648900e+01,  8.340300e+01)
* S12 FREQ DB
 G0102 3 100 FREQ {V(200,3)}= DB
+(  5.000000e+07Hz, -6.799200e+01, -3.090000e+00)
+(  6.000000e+07Hz, -6.809100e+01, -2.957000e+00)
+(  7.000000e+07Hz, -6.783700e+01, -4.865000e+00)
+(  8.000000e+07Hz, -6.796300e+01, -5.099000e+00)
+(  9.500000e+07Hz, -6.797200e+01, -4.219000e+00)
+(  1.050000e+08Hz, -6.802600e+01, -5.749000e+00)
+(  1.200000e+08Hz, -6.793400e+01, -6.439000e+00)
+(  1.300000e+08Hz, -6.796100e+01, -7.028000e+00)
+(  1.450000e+08Hz, -6.796800e+01, -7.700000e+00)
+(  1.550000e+08Hz, -6.793900e+01, -7.857000e+00)
+(  1.700000e+08Hz, -6.799600e+01, -9.108000e+00)
+(  1.800000e+08Hz, -6.800500e+01, -9.335000e+00)
+(  1.950000e+08Hz, -6.784200e+01, -1.035600e+01)
+(  2.050000e+08Hz, -6.787100e+01, -1.053300e+01)
+(  2.200000e+08Hz, -6.794800e+01, -1.174500e+01)
+(  2.300000e+08Hz, -6.784400e+01, -1.188000e+01)
+(  2.450000e+08Hz, -6.790600e+01, -1.295200e+01)
+(  2.550000e+08Hz, -6.792600e+01, -1.358600e+01)
+(  2.700000e+08Hz, -6.782300e+01, -1.440200e+01)
+(  2.800000e+08Hz, -6.782400e+01, -1.491400e+01)
+(  2.950000e+08Hz, -6.783800e+01, -1.552700e+01)
+(  3.050000e+08Hz, -6.783300e+01, -1.598900e+01)
+(  3.200000e+08Hz, -6.785100e+01, -1.676400e+01)
+(  3.300000e+08Hz, -6.779500e+01, -1.772800e+01)
+(  3.450000e+08Hz, -6.776900e+01, -1.850400e+01)
+(  3.550000e+08Hz, -6.777300e+01, -1.897400e+01)
+(  3.700000e+08Hz, -6.784000e+01, -1.994700e+01)
+(  3.800000e+08Hz, -6.774700e+01, -2.046400e+01)
+(  3.950000e+08Hz, -6.775200e+01, -2.117000e+01)
+(  4.050000e+08Hz, -6.767800e+01, -2.203700e+01)
+(  4.200000e+08Hz, -6.775800e+01, -2.237800e+01)
+(  4.300000e+08Hz, -6.772500e+01, -2.321400e+01)
+(  4.450000e+08Hz, -6.767900e+01, -2.417200e+01)
+(  4.550000e+08Hz, -6.770100e+01, -2.443500e+01)
+(  4.700000e+08Hz, -6.762200e+01, -2.520900e+01)
+(  4.800000e+08Hz, -6.764500e+01, -2.582600e+01)
+(  4.950000e+08Hz, -6.763600e+01, -2.688500e+01)
+(  5.050000e+08Hz, -6.763800e+01, -2.733200e+01)
+(  5.200000e+08Hz, -6.761000e+01, -2.805700e+01)
+(  5.300000e+08Hz, -6.760800e+01, -2.905900e+01)
+(  5.450000e+08Hz, -6.760900e+01, -2.969700e+01)
+(  5.550000e+08Hz, -6.757500e+01, -3.024100e+01)
+(  5.700000e+08Hz, -6.758200e+01, -3.097000e+01)
+(  5.800000e+08Hz, -6.756500e+01, -3.161100e+01)
+(  5.950000e+08Hz, -6.755100e+01, -3.264600e+01)
+(  6.050000e+08Hz, -6.754300e+01, -3.311400e+01)
+(  6.200000e+08Hz, -6.752800e+01, -3.383100e+01)
+(  6.300000e+08Hz, -6.750600e+01, -3.454800e+01)
+(  6.450000e+08Hz, -6.747000e+01, -3.543500e+01)
+(  6.550000e+08Hz, -6.747400e+01, -3.583900e+01)
+(  6.700000e+08Hz, -6.747400e+01, -3.696800e+01)
+(  6.800000e+08Hz, -6.745700e+01, -3.742700e+01)
+(  6.950000e+08Hz, -6.745600e+01, -3.830000e+01)
+(  7.050000e+08Hz, -6.742600e+01, -3.895500e+01)
+(  7.200000e+08Hz, -6.745200e+01, -3.969000e+01)
+(  7.300000e+08Hz, -6.742400e+01, -4.044400e+01)
+(  7.450000e+08Hz, -6.737300e+01, -4.100200e+01)
+(  7.550000e+08Hz, -6.737100e+01, -4.169500e+01)
+(  7.700000e+08Hz, -6.736700e+01, -4.275000e+01)
+(  7.800000e+08Hz, -6.735100e+01, -4.309800e+01)
+(  7.950000e+08Hz, -6.734100e+01, -4.419300e+01)
+(  8.050000e+08Hz, -6.731700e+01, -4.471200e+01)
+(  8.200000e+08Hz, -6.731600e+01, -4.566700e+01)
+(  8.300000e+08Hz, -6.729500e+01, -4.609200e+01)
+(  8.450000e+08Hz, -6.728800e+01, -4.708400e+01)
+(  8.550000e+08Hz, -6.728000e+01, -4.757800e+01)
+(  8.700000e+08Hz, -6.723000e+01, -4.846200e+01)
+(  8.800000e+08Hz, -6.723900e+01, -4.916200e+01)
+(  8.950000e+08Hz, -6.721400e+01, -4.981100e+01)
+(  9.050000e+08Hz, -6.720100e+01, -5.044300e+01)
+(  9.200000e+08Hz, -6.718100e+01, -5.154900e+01)
+(  9.300000e+08Hz, -6.717700e+01, -5.202900e+01)
+(  9.450000e+08Hz, -6.715900e+01, -5.293700e+01)
+(  9.550000e+08Hz, -6.713600e+01, -5.353500e+01)
+(  9.700000e+08Hz, -6.710600e+01, -5.446200e+01)
+(  9.800000e+08Hz, -6.708600e+01, -5.509800e+01)
+(  9.950000e+08Hz, -6.708600e+01, -5.585200e+01)
+(  1.005000e+09Hz, -6.705600e+01, -5.646400e+01)
+(  1.020000e+09Hz, -6.703600e+01, -5.748500e+01)
+(  1.030000e+09Hz, -6.702400e+01, -5.813400e+01)
+(  1.045000e+09Hz, -6.699700e+01, -5.908000e+01)
+(  1.055000e+09Hz, -6.700200e+01, -5.954400e+01)
+(  1.070000e+09Hz, -6.697300e+01, -6.053000e+01)
+(  1.080000e+09Hz, -6.695200e+01, -6.111400e+01)
+(  1.110000e+09Hz, -6.691700e+01, -6.289800e+01)
+(  1.130000e+09Hz, -6.692200e+01, -6.405000e+01)
+(  1.160000e+09Hz, -6.683500e+01, -6.598500e+01)
+(  1.180000e+09Hz, -6.685200e+01, -6.694100e+01)
+(  1.210000e+09Hz, -6.675800e+01, -6.904200e+01)
+(  1.230000e+09Hz, -6.673500e+01, -7.025500e+01)
+(  1.260000e+09Hz, -6.668300e+01, -7.216400e+01)
+(  1.280000e+09Hz, -6.669200e+01, -7.332700e+01)
+(  1.310000e+09Hz, -6.660800e+01, -7.539600e+01)
+(  1.330000e+09Hz, -6.658500e+01, -7.658000e+01)
+(  1.360000e+09Hz, -6.654800e+01, -7.860200e+01)
+(  1.380000e+09Hz, -6.654200e+01, -7.979800e+01)
+(  1.410000e+09Hz, -6.645100e+01, -8.132000e+01)
+(  1.430000e+09Hz, -6.644400e+01, -8.272500e+01)
+(  1.460000e+09Hz, -6.638800e+01, -8.484900e+01)
+(  1.480000e+09Hz, -6.636100e+01, -8.613000e+01)
+(  1.510000e+09Hz, -6.634500e+01, -8.788000e+01)
+(  1.530000e+09Hz, -6.631600e+01, -8.928900e+01)
+(  1.560000e+09Hz, -6.622800e+01, -9.109200e+01)
+(  1.580000e+09Hz, -6.617000e+01, -9.231000e+01)
+(  1.610000e+09Hz, -6.618700e+01, -9.455900e+01)
+(  1.630000e+09Hz, -6.614700e+01, -9.577200e+01)
+(  1.660000e+09Hz, -6.610200e+01, -9.746900e+01)
+(  1.680000e+09Hz, -6.606100e+01, -9.880200e+01)
+(  1.710000e+09Hz, -6.599200e+01, -1.012060e+02)
+(  1.730000e+09Hz, -6.594400e+01, -1.019410e+02)
+(  1.760000e+09Hz, -6.595100e+01, -1.041180e+02)
+(  1.780000e+09Hz, -6.590400e+01, -1.055660e+02)
+(  1.810000e+09Hz, -6.584700e+01, -1.073540e+02)
+(  1.830000e+09Hz, -6.580500e+01, -1.086040e+02)
+(  1.860000e+09Hz, -6.575000e+01, -1.108680e+02)
+(  1.880000e+09Hz, -6.570800e+01, -1.122560e+02)
+(  1.910000e+09Hz, -6.571300e+01, -1.140980e+02)
+(  1.930000e+09Hz, -6.565400e+01, -1.158180e+02)
+(  1.960000e+09Hz, -6.561400e+01, -1.174980e+02)
+(  1.980000e+09Hz, -6.556000e+01, -1.191750e+02)
+(  2.010000e+09Hz, -6.552900e+01, -1.213990e+02)
+(  2.030000e+09Hz, -6.547700e+01, -1.225120e+02)
+(  2.060000e+09Hz, -6.545400e+01, -1.246690e+02)
+(  2.080000e+09Hz, -6.543900e+01, -1.260420e+02)
+(  2.110000e+09Hz, -6.535600e+01, -1.281310e+02)
+(  2.130000e+09Hz, -6.534000e+01, -1.290860e+02)
+(  2.160000e+09Hz, -6.529100e+01, -1.315560e+02)
+(  2.180000e+09Hz, -6.524600e+01, -1.331370e+02)
+(  2.210000e+09Hz, -6.523100e+01, -1.348060e+02)
+(  2.230000e+09Hz, -6.519500e+01, -1.362320e+02)
+(  2.260000e+09Hz, -6.508000e+01, -1.384700e+02)
+(  2.280000e+09Hz, -6.510400e+01, -1.397930e+02)
+(  2.310000e+09Hz, -6.503900e+01, -1.418900e+02)
+(  2.330000e+09Hz, -6.499600e+01, -1.434690e+02)
+(  2.360000e+09Hz, -6.496500e+01, -1.455990e+02)
+(  2.380000e+09Hz, -6.500800e+01, -1.471720e+02)
+(  2.410000e+09Hz, -6.488300e+01, -1.492040e+02)
+(  2.430000e+09Hz, -6.485100e+01, -1.503870e+02)
+(  2.460000e+09Hz, -6.481000e+01, -1.525580e+02)
+(  2.480000e+09Hz, -6.479500e+01, -1.541270e+02)
+(  2.510000e+09Hz, -6.471200e+01, -1.562270e+02)
+(  2.530000e+09Hz, -6.468200e+01, -1.577660e+02)
+(  2.560000e+09Hz, -6.467900e+01, -1.601610e+02)
+(  2.580000e+09Hz, -6.461000e+01, -1.614500e+02)
+(  2.610000e+09Hz, -6.455500e+01, -1.632460e+02)
+(  2.630000e+09Hz, -6.457000e+01, -1.650310e+02)
+(  2.660000e+09Hz, -6.448800e+01, -1.672070e+02)
+(  2.680000e+09Hz, -6.446200e+01, -1.685750e+02)
+(  2.710000e+09Hz, -6.444200e+01, -1.711000e+02)
+(  2.730000e+09Hz, -6.442600e+01, -1.726430e+02)
+(  2.760000e+09Hz, -6.438800e+01, -1.748430e+02)
+(  2.780000e+09Hz, -6.435500e+01, -1.762000e+02)
+(  2.810000e+09Hz, -6.428700e+01, -1.785730e+02)
+(  2.830000e+09Hz, -6.425100e+01, -1.797850e+02)
+(  2.860000e+09Hz, -6.424700e+01,  1.779420e+02)
+(  2.880000e+09Hz, -6.418500e+01,  1.764320e+02)
+(  2.910000e+09Hz, -6.411500e+01,  1.740850e+02)
+(  2.930000e+09Hz, -6.412000e+01,  1.726290e+02)
+(  2.960000e+09Hz, -6.409000e+01,  1.704440e+02)
+(  2.980000e+09Hz, -6.402400e+01,  1.686790e+02)
+(  3.010000e+09Hz, -6.401100e+01,  1.665700e+02)
+(  3.030000e+09Hz, -6.401400e+01,  1.647550e+02)
+(  3.060000e+09Hz, -6.394100e+01,  1.627190e+02)
+(  3.080000e+09Hz, -6.396600e+01,  1.612140e+02)
+(  3.110000e+09Hz, -6.390000e+01,  1.591530e+02)
+(  3.130000e+09Hz, -6.388700e+01,  1.572550e+02)
+(  3.160000e+09Hz, -6.389900e+01,  1.553490e+02)
+(  3.180000e+09Hz, -6.383900e+01,  1.539200e+02)
+(  3.210000e+09Hz, -6.374700e+01,  1.514490e+02)
+(  3.230000e+09Hz, -6.374400e+01,  1.502330e+02)
+(  3.260000e+09Hz, -6.367300e+01,  1.475270e+02)
+(  3.280000e+09Hz, -6.363900e+01,  1.456520e+02)
+(  3.310000e+09Hz, -6.363900e+01,  1.436330e+02)