.SUBCKT A63V0  1 2 3
* Pin 3 is the reference plane (usually it should be connected to GND)
* Infineon Technologies  Discrete & RF Semiconductors
* BGA427
* Si NPN RF SIEGET Grounded Emitter Transistor in SOT343
* VCE =      IC =
* Common Emitter S-Parameters:                     November  1999
*  f         S11            S21            S12            S22
* GHz     MAG   ANG      MAG   ANG      MAG   ANG      MAG   ANG
*
* (c) 1999  Infineon Technologies AG, Munich
* GHZ  S  MA  R  50
* Z1 = 50 Z2 = 50
R1N 1 100 -5.000000e+01
R1P 100 3 100.000000
R2N 2 200 -5.000000e+01
R2P 200 3 100.000000

* S11 FREQ MAG
 G0101 3 100 FREQ {V(100,3)}= MAG
+(  1.000000e+07Hz,  6.843000e-03, -3.010000e+01)
+(  2.000000e+07Hz,  4.817000e-03, -4.730000e+01)
+(  5.000000e+07Hz,  2.251000e-03, -6.220000e+01)
+(  1.000000e+08Hz,  1.132000e-03, -5.420000e+01)
+(  1.500000e+08Hz,  8.350000e-04, -4.110000e+01)
+(  2.000000e+08Hz,  7.880000e-04, -2.470000e+01)
+(  2.500000e+08Hz,  8.290000e-04, -1.360000e+01)
+(  3.000000e+08Hz,  8.980000e-04, -1.150000e+01)
+(  4.000000e+08Hz,  1.081000e-03, -1.280000e+01)
+(  5.000000e+08Hz,  1.247000e-03, -2.230000e+01)
+(  6.000000e+08Hz,  1.377000e-03, -3.850000e+01)
+(  7.000000e+08Hz,  1.361000e-03, -5.120000e+01)
+(  8.000000e+08Hz,  1.409000e-03, -6.470000e+01)
+(  9.000000e+08Hz,  1.408000e-03, -8.300000e+01)
+(  1.000000e+09Hz,  1.413000e-03, -9.560000e+01)
+(  1.100000e+09Hz,  1.428000e-03, -1.114000e+02)
+(  1.200000e+09Hz,  1.538000e-03, -1.254000e+02)
+(  1.300000e+09Hz,  1.558000e-03, -1.388000e+02)
+(  1.400000e+09Hz,  1.643000e-03, -1.492000e+02)
+(  1.500000e+09Hz,  1.743000e-03, -1.596000e+02)
+(  1.600000e+09Hz,  1.849000e-03, -1.695000e+02)
+(  1.700000e+09Hz,  1.962000e-03, -1.762000e+02)
+(  1.800000e+09Hz,  2.075000e-03,  1.747000e+02)
+(  1.900000e+09Hz,  2.149000e-03,  1.688000e+02)
+(  2.000000e+09Hz,  2.202000e-03,  1.628000e+02)
+(  2.200000e+09Hz,  2.356000e-03,  1.520000e+02)
+(  2.400000e+09Hz,  2.480000e-03,  1.433000e+02)
+(  2.600000e+09Hz,  2.614000e-03,  1.350000e+02)
+(  2.800000e+09Hz,  2.665000e-03,  1.270000e+02)
+(  3.000000e+09Hz,  2.672000e-03,  1.186000e+02)
+(  3.500000e+09Hz,  2.371000e-03,  1.074000e+02)
+(  4.000000e+09Hz,  2.627000e-03,  9.940000e+01)
+(  4.500000e+09Hz,  2.438000e-03,  8.990000e+01)
+(  5.000000e+09Hz,  2.228000e-03,  8.290000e+01)
+(  5.500000e+09Hz,  1.986000e-03,  7.740000e+01)
+(  6.000000e+09Hz,  1.828000e-03,  7.880000e+01)
* S12 FREQ MAG
 G0102 3 100 FREQ {V(200,3)}= MAG
+(  1.000000e+07Hz,  5.000000e-05, -1.010000e+01)
+(  2.000000e+07Hz,  3.400000e-05, -3.540000e+01)
+(  5.000000e+07Hz,  1.600000e-05, -2.180000e+01)
+(  1.000000e+08Hz,  2.200000e-05,  5.670000e+01)
+(  1.500000e+08Hz,  3.200000e-05,  7.100000e+01)
+(  2.000000e+08Hz,  5.000000e-05,  7.730000e+01)
+(  2.500000e+08Hz,  5.500000e-05,  7.580000e+01)
+(  3.000000e+08Hz,  7.400000e-05,  7.740000e+01)
+(  4.000000e+08Hz,  9.100000e-05,  7.830000e+01)
+(  5.000000e+08Hz,  1.140000e-04,  8.480000e+01)
+(  6.000000e+08Hz,  1.290000e-04,  8.290000e+01)
+(  7.000000e+08Hz,  1.590000e-04,  8.780000e+01)
+(  8.000000e+08Hz,  1.840000e-04,  8.950000e+01)
+(  9.000000e+08Hz,  2.070000e-04,  9.270000e+01)
+(  1.000000e+09Hz,  2.460000e-04,  9.200000e+01)
+(  1.100000e+09Hz,  2.770000e-04,  9.160000e+01)
+(  1.200000e+09Hz,  3.060000e-04,  9.170000e+01)
+(  1.300000e+09Hz,  3.440000e-04,  9.240000e+01)
+(  1.400000e+09Hz,  3.750000e-04,  9.150000e+01)
+(  1.500000e+09Hz,  4.190000e-04,  9.050000e+01)
+(  1.600000e+09Hz,  4.480000e-04,  8.900000e+01)
+(  1.700000e+09Hz,  4.820000e-04,  8.870000e+01)
+(  1.800000e+09Hz,  5.180000e-04,  8.820000e+01)
+(  1.900000e+09Hz,  5.550000e-04,  8.670000e+01)
+(  2.000000e+09Hz,  5.890000e-04,  8.660000e+01)
+(  2.200000e+09Hz,  6.690000e-04,  8.450000e+01)
+(  2.400000e+09Hz,  7.430000e-04,  8.310000e+01)
+(  2.600000e+09Hz,  8.180000e-04,  8.120000e+01)
+(  2.800000e+09Hz,  8.900000e-04,  7.970000e+01)
+(  3.000000e+09Hz,  9.870000e-04,  7.780000e+01)
+(  3.500000e+09Hz,  1.207000e-03,  7.050000e+01)
+(  4.000000e+09Hz,  1.376000e-03,  6.630000e+01)
+(  4.500000e+09Hz,  1.589000e-03,  6.100000e+01)
+(  5.000000e+09Hz,  1.808000e-03,  5.540000e+01)
+(  5.500000e+09Hz,  2.032000e-03,  4.940000e+01)
+(  6.000000e+09Hz,  2.264000e-03,  4.260000e+01)

* S21 FREQ MAG
 G0201 3 200 FREQ {V(100,3)}= MAG
+(  1.000000e+07Hz,  3.931500e-01, -1.763000e+02)
+(  2.000000e+07Hz,  3.727700e-01,  1.691000e+02)
+(  5.000000e+07Hz,  2.986600e-01,  1.652000e+02)
+(  1.000000e+08Hz,  2.748200e-01,  1.643000e+02)
+(  1.500000e+08Hz,  2.696200e-01,  1.616000e+02)
+(  2.000000e+08Hz,  2.650400e-01,  1.575000e+02)
+(  2.500000e+08Hz,  2.619300e-01,  1.535000e+02)
+(  3.000000e+08Hz,  2.578300e-01,  1.491000e+02)
+(  4.000000e+08Hz,  2.481900e-01,  1.403000e+02)
+(  5.000000e+08Hz,  2.344900e-01,  1.315000e+02)
+(  6.000000e+08Hz,  2.186100e-01,  1.244000e+02)
+(  7.000000e+08Hz,  2.064000e-01,  1.159000e+02)
+(  8.000000e+08Hz,  1.896600e-01,  1.086000e+02)
+(  9.000000e+08Hz,  1.766400e-01,  1.024000e+02)
+(  1.000000e+09Hz,  1.635000e-01,  9.590000e+01)
+(  1.100000e+09Hz,  1.499600e-01,  9.030000e+01)
+(  1.200000e+09Hz,  1.382600e-01,  8.560000e+01)
+(  1.300000e+09Hz,  1.283600e-01,  8.080000e+01)
+(  1.400000e+09Hz,  1.190400e-01,  7.680000e+01)
+(  1.500000e+09Hz,  1.107000e-01,  7.260000e+01)
+(  1.600000e+09Hz,  1.030900e-01,  6.900000e+01)
+(  1.700000e+09Hz,  9.652000e-02,  6.570000e+01)
+(  1.800000e+09Hz,  9.051000e-02,  6.230000e+01)
+(  1.900000e+09Hz,  8.530000e-02,  5.930000e+01)
+(  2.000000e+09Hz,  8.047000e-02,  5.640000e+01)
+(  2.200000e+09Hz,  7.211000e-02,  5.080000e+01)
+(  2.400000e+09Hz,  6.526000e-02,  4.570000e+01)
+(  2.600000e+09Hz,  5.951000e-02,  4.080000e+01)
+(  2.800000e+09Hz,  5.468000e-02,  3.600000e+01)
+(  3.000000e+09Hz,  5.086000e-02,  3.090000e+01)
+(  3.500000e+09Hz,  4.171000e-02,  1.870000e+01)
+(  4.000000e+09Hz,  3.501000e-02,  9.200000e+00)
+(  4.500000e+09Hz,  2.999000e-02, -1.000000e+00)
+(  5.000000e+09Hz,  2.574000e-02, -1.080000e+01)
+(  5.500000e+09Hz,  2.232000e-02, -1.980000e+01)
+(  6.000000e+09Hz,  1.928000e-02, -2.870000e+01)
* S22 FREQ MAG
 G0202 3 200 FREQ {V(200,3)}= MAG
+(  1.000000e+07Hz,  6.594000e-03, -1.389000e+02)
+(  2.000000e+07Hz,  7.160000e-03, -1.651000e+02)
+(  5.000000e+07Hz,  7.056000e-03, -1.785000e+02)
+(  1.000000e+08Hz,  6.926000e-03,  1.744000e+02)
+(  1.500000e+08Hz,  6.899000e-03,  1.704000e+02)
+(  2.000000e+08Hz,  6.748000e-03,  1.662000e+02)
+(  2.500000e+08Hz,  6.656000e-03,  1.622000e+02)
+(  3.000000e+08Hz,  6.542000e-03,  1.587000e+02)
+(  4.000000e+08Hz,  6.242000e-03,  1.518000e+02)
+(  5.000000e+08Hz,  5.799000e-03,  1.455000e+02)
+(  6.000000e+08Hz,  5.242000e-03,  1.432000e+02)
+(  7.000000e+08Hz,  5.114000e-03,  1.386000e+02)
+(  8.000000e+08Hz,  4.694000e-03,  1.354000e+02)
+(  9.000000e+08Hz,  4.478000e-03,  1.356000e+02)
+(  1.000000e+09Hz,  4.302000e-03,  1.335000e+02)
+(  1.100000e+09Hz,  4.104000e-03,  1.328000e+02)
+(  1.200000e+09Hz,  4.009000e-03,  1.332000e+02)
+(  1.300000e+09Hz,  3.957000e-03,  1.331000e+02)
+(  1.400000e+09Hz,  3.922000e-03,  1.332000e+02)
+(  1.500000e+09Hz,  3.914000e-03,  1.324000e+02)
+(  1.600000e+09Hz,  3.947000e-03,  1.319000e+02)
+(  1.700000e+09Hz,  3.982000e-03,  1.314000e+02)
+(  1.800000e+09Hz,  4.008000e-03,  1.307000e+02)
+(  1.900000e+09Hz,  4.023000e-03,  1.302000e+02)
+(  2.000000e+09Hz,  4.086000e-03,  1.293000e+02)
+(  2.200000e+09Hz,  4.164000e-03,  1.266000e+02)
+(  2.400000e+09Hz,  4.317000e-03,  1.245000e+02)
+(  2.600000e+09Hz,  4.379000e-03,  1.215000e+02)
+(  2.800000e+09Hz,  4.516000e-03,  1.191000e+02)
+(  3.000000e+09Hz,  4.586000e-03,  1.160000e+02)
+(  3.500000e+09Hz,  4.791000e-03,  1.080000e+02)
+(  4.000000e+09Hz,  5.020000e-03,  1.017000e+02)
+(  4.500000e+09Hz,  5.213000e-03,  9.480000e+01)
+(  5.000000e+09Hz,  5.328000e-03,  8.770000e+01)
+(  5.500000e+09Hz,  5.426000e-03,  7.930000e+01)
+(  6.000000e+09Hz,  5.550000e-03,  7.210000e+01)

.ENDS ; A63V0
