.SUBCKT MAR-6SM+_Unit1_16mA_Plus25  1 2 3
* Pin 3 is the reference plane (usually it should be connected to GND)
*Mini-Circuits Laboratory
*S-Parameters
*Model: MAR-6SM+
*Run / Lot / Date Code: N/A / AH182-001-02-22EV / 1052
*Fixture: N/A; TB-289+
*AUTO PORT EXTENSION DONE: PORT<1>=94.68ps; PORT<2>=95.92ps
*Network Analyzer: PNA-X N5242A - 423 4 ports;  Serial number: 71256
*Date: 3/16/2011
*S/N: Unit# 1
*
*Frequency    S11 dB        S11 Deg       S21 dB        S21 Deg       S12 dB        S12 Deg       S22 dB        S22 Deg
* HZ  S  DB  R  50
* Z1 = 50 Z2 = 50
R1N 1 100 -5.000000e+01
R1P 100 3 100.000000
R2N 2 200 -5.000000e+01
R2P 200 3 100.000000

* S11 FREQ DB
 G0101 3 100 FREQ {V(100,3)}= DB
+(  1.000010e+07Hz, -7.780463e+01,  1.728367e+01)
+(  1.500010e+07Hz, -7.703790e+01,  2.726493e+01)
+(  2.000010e+07Hz, -7.486485e+01,  1.493853e+01)
+(  2.500010e+07Hz, -7.531881e+01,  4.253680e+00)
+(  3.000010e+07Hz, -7.415516e+01,  9.131840e+00)
+(  3.500010e+07Hz, -7.343506e+01,  7.855153e+00)
+(  4.000010e+07Hz, -7.340244e+01,  7.094100e+00)
+(  4.500010e+07Hz, -7.326683e+01,  7.975791e+00)
+(  5.000010e+07Hz, -7.345773e+01,  6.071305e+00)
+(  5.500010e+07Hz, -7.392806e+01,  8.649844e+00)
+(  6.000010e+07Hz, -7.371280e+01,  9.193152e+00)
+(  6.500010e+07Hz, -7.399895e+01,  1.025797e+01)
+(  7.000010e+07Hz, -7.412656e+01,  1.106426e+01)
+(  7.500010e+07Hz, -7.393455e+01,  1.363929e+01)
+(  8.000010e+07Hz, -7.393506e+01,  1.312493e+01)
+(  8.500010e+07Hz, -7.343024e+01,  1.472206e+01)
+(  9.000010e+07Hz, -7.335137e+01,  1.474814e+01)
+(  9.500010e+07Hz, -7.309874e+01,  1.546586e+01)
+(  1.000001e+08Hz, -7.286949e+01,  1.417147e+01)
+(  1.050001e+08Hz, -7.254777e+01,  1.588975e+01)
+(  1.100001e+08Hz, -7.236028e+01,  1.576155e+01)
+(  1.150001e+08Hz, -7.246163e+01,  1.583292e+01)
+(  1.200001e+08Hz, -7.234241e+01,  1.508370e+01)
+(  1.250001e+08Hz, -7.221218e+01,  1.504406e+01)
+(  1.300001e+08Hz, -7.232646e+01,  1.562461e+01)
+(  1.350001e+08Hz, -7.225293e+01,  1.508920e+01)
+(  1.400001e+08Hz, -7.222982e+01,  1.580773e+01)
+(  1.450001e+08Hz, -7.242166e+01,  1.579279e+01)
+(  1.500001e+08Hz, -7.251393e+01,  1.693828e+01)
+(  1.550001e+08Hz, -7.258731e+01,  1.742770e+01)
+(  1.600001e+08Hz, -7.255579e+01,  1.751802e+01)
+(  1.650001e+08Hz, -7.258776e+01,  1.878275e+01)
+(  1.700001e+08Hz, -7.264852e+01,  2.215182e+01)
+(  1.750001e+08Hz, -7.272723e+01,  2.042087e+01)
+(  1.800001e+08Hz, -7.252992e+01,  2.180908e+01)
+(  1.850001e+08Hz, -7.237054e+01,  2.239416e+01)
+(  1.900001e+08Hz, -7.198180e+01,  2.205585e+01)
+(  1.950001e+08Hz, -7.191721e+01,  2.127828e+01)
+(  2.000001e+08Hz, -7.167320e+01,  2.035090e+01)
+(  2.050001e+08Hz, -7.183388e+01,  2.131373e+01)
+(  2.100001e+08Hz, -7.174901e+01,  2.191710e+01)
+(  2.150001e+08Hz, -7.169834e+01,  2.220541e+01)
+(  2.200001e+08Hz, -7.184484e+01,  2.265671e+01)
+(  2.250001e+08Hz, -7.166568e+01,  2.319684e+01)
+(  2.300001e+08Hz, -7.197171e+01,  2.251101e+01)
+(  2.350001e+08Hz, -7.174889e+01,  2.417722e+01)
+(  2.400001e+08Hz, -7.203581e+01,  2.448508e+01)
+(  2.450001e+08Hz, -7.190169e+01,  2.514529e+01)
+(  2.500001e+08Hz, -7.153716e+01,  2.596998e+01)
+(  2.550001e+08Hz, -7.154289e+01,  2.626800e+01)
+(  2.600001e+08Hz, -7.166315e+01,  2.509494e+01)
+(  2.650001e+08Hz, -7.164660e+01,  2.391101e+01)
+(  2.700001e+08Hz, -7.174780e+01,  2.590242e+01)
+(  2.750001e+08Hz, -7.162025e+01,  2.523018e+01)
+(  2.800001e+08Hz, -7.169596e+01,  2.570451e+01)
+(  2.850001e+08Hz, -7.116526e+01,  2.902975e+01)
+(  2.900001e+08Hz, -7.111435e+01,  2.558594e+01)
+(  2.950001e+08Hz, -7.097220e+01,  2.558538e+01)
+(  3.000001e+08Hz, -7.092310e+01,  2.558955e+01)
+(  3.050001e+08Hz, -7.065710e+01,  2.526895e+01)
+(  3.100001e+08Hz, -7.086621e+01,  2.587980e+01)
+(  3.150001e+08Hz, -7.070309e+01,  2.694919e+01)
+(  3.200001e+08Hz, -7.074087e+01,  2.839849e+01)
+(  3.250001e+08Hz, -7.091158e+01,  2.716206e+01)
+(  3.300001e+08Hz, -7.074951e+01,  2.744817e+01)
+(  3.350001e+08Hz, -7.103078e+01,  2.813927e+01)
+(  3.400001e+08Hz, -7.098746e+01,  2.987527e+01)
+(  3.450001e+08Hz, -7.068922e+01,  2.811250e+01)
+(  3.500001e+08Hz, -7.058232e+01,  2.983982e+01)
+(  3.550001e+08Hz, -7.071995e+01,  2.822238e+01)
+(  3.600001e+08Hz, -7.050766e+01,  2.884854e+01)
+(  3.650001e+08Hz, -7.050813e+01,  2.909778e+01)
+(  3.700001e+08Hz, -7.038378e+01,  2.880007e+01)
+(  3.750001e+08Hz, -7.055489e+01,  2.848880e+01)
+(  3.800001e+08Hz, -7.022671e+01,  2.799136e+01)
+(  3.850001e+08Hz, -7.040372e+01,  2.896329e+01)
+(  3.900001e+08Hz, -7.052182e+01,  3.039653e+01)
+(  3.950001e+08Hz, -7.037173e+01,  2.991730e+01)
+(  4.000001e+08Hz, -7.023924e+01,  2.824707e+01)
+(  4.050001e+08Hz, -7.038941e+01,  2.992960e+01)
+(  4.100001e+08Hz, -7.009544e+01,  2.989454e+01)
+(  4.150001e+08Hz, -7.013329e+01,  2.948107e+01)
+(  4.200001e+08Hz, -6.987130e+01,  3.029323e+01)
+(  4.250001e+08Hz, -6.993413e+01,  3.083848e+01)
+(  4.300001e+08Hz, -6.978584e+01,  3.005440e+01)
+(  4.350001e+08Hz, -7.006785e+01,  3.114439e+01)
+(  4.400001e+08Hz, -6.980648e+01,  3.070848e+01)
+(  4.450001e+08Hz, -7.002914e+01,  3.229477e+01)
+(  4.500001e+08Hz, -6.989730e+01,  3.265813e+01)
+(  4.550001e+08Hz, -6.976379e+01,  3.226014e+01)
+(  4.600001e+08Hz, -6.951798e+01,  3.198915e+01)
+(  4.650001e+08Hz, -6.967221e+01,  3.210944e+01)
+(  4.700001e+08Hz, -6.960089e+01,  3.113253e+01)
+(  4.750001e+08Hz, -6.951704e+01,  3.269012e+01)
+(  4.800001e+08Hz, -6.926268e+01,  3.077469e+01)
+(  4.850001e+08Hz, -6.929362e+01,  3.109251e+01)
+(  4.900001e+08Hz, -6.919894e+01,  3.043296e+01)
+(  4.950001e+08Hz, -6.936145e+01,  3.025976e+01)
+(  5.000001e+08Hz, -6.941517e+01,  2.963954e+01)
+(  5.050001e+08Hz, -6.931818e+01,  3.029341e+01)
+(  5.100001e+08Hz, -6.951025e+01,  3.044375e+01)
+(  5.150001e+08Hz, -6.943255e+01,  3.025654e+01)
+(  5.200001e+08Hz, -6.935793e+01,  3.195201e+01)
+(  5.250001e+08Hz, -6.955754e+01,  3.099728e+01)
+(  5.300001e+08Hz, -6.942517e+01,  3.215357e+01)
+(  5.350001e+08Hz, -6.940454e+01,  3.198361e+01)
+(  5.400001e+08Hz, -6.943970e+01,  3.134190e+01)
+(  5.450001e+08Hz, -6.921710e+01,  3.103694e+01)
+(  5.500001e+08Hz, -6.924222e+01,  3.047772e+01)
+(  5.550001e+08Hz, -6.925435e+01,  2.906956e+01)
+(  5.600001e+08Hz, -6.907689e+01,  3.017664e+01)
+(  5.650001e+08Hz, -6.893328e+01,  2.991635e+01)
+(  5.700001e+08Hz, -6.946597e+01,  3.093407e+01)
+(  5.750001e+08Hz, -6.923376e+01,  3.113046e+01)
+(  5.800001e+08Hz, -6.920375e+01,  3.191396e+01)
+(  5.850001e+08Hz, -6.925976e+01,  3.156894e+01)
+(  5.900001e+08Hz, -6.896830e+01,  3.157271e+01)
+(  5.950001e+08Hz, -6.884305e+01,  3.126915e+01)
+(  6.000001e+08Hz, -6.885897e+01,  3.025414e+01)
+(  6.050001e+08Hz, -6.885025e+01,  2.952681e+01)
+(  6.100001e+08Hz, -6.873236e+01,  2.869687e+01)
+(  6.150001e+08Hz, -6.877381e+01,  2.868990e+01)
+(  6.200001e+08Hz, -6.888882e+01,  2.973464e+01)
+(  6.250001e+08Hz, -6.905741e+01,  2.939406e+01)
+(  6.300001e+08Hz, -6.886386e+01,  2.953657e+01)
+(  6.350001e+08Hz, -6.913207e+01,  3.141030e+01)
+(  6.400001e+08Hz, -6.892819e+01,  3.053234e+01)
+(  6.450001e+08Hz, -6.894140e+01,  3.111283e+01)
+(  6.500001e+08Hz, -6.885016e+01,  3.019750e+01)
+(  6.550001e+08Hz, -6.873997e+01,  3.060733e+01)
+(  6.600001e+08Hz, -6.865324e+01,  2.891651e+01)
+(  6.650001e+08Hz, -6.866116e+01,  2.787651e+01)
+(  6.700001e+08Hz, -6.875467e+01,  2.904817e+01)
+(  6.750001e+08Hz, -6.861589e+01,  2.788715e+01)
+(  6.800001e+08Hz, -6.860959e+01,  2.829029e+01)
+(  6.850001e+08Hz, -6.871053e+01,  2.947125e+01)
+(  6.900001e+08Hz, -6.882586e+01,  2.877532e+01)
+(  6.950001e+08Hz, -6.873497e+01,  2.851273e+01)
+(  7.000001e+08Hz, -6.860549e+01,  2.891400e+01)
+(  7.050001e+08Hz, -6.862677e+01,  2.934586e+01)
+(  7.100001e+08Hz, -6.860702e+01,  2.882289e+01)
+(  7.150001e+08Hz, -6.863547e+01,  2.861647e+01)
+(  7.200001e+08Hz, -6.860221e+01,  2.918702e+01)
+(  7.250001e+08Hz, -6.853399e+01,  2.841499e+01)
+(  7.300001e+08Hz, -6.852703e+01,  2.774125e+01)
+(  7.350001e+08Hz, -6.852176e+01,  2.907751e+01)
+(  7.400001e+08Hz, -6.860908e+01,  2.880178e+01)
+(  7.450001e+08Hz, -6.850957e+01,  2.837183e+01)
+(  7.500001e+08Hz, -6.851723e+01,  2.925061e+01)
+(  7.550001e+08Hz, -6.848489e+01,  2.918210e+01)
+(  7.600001e+08Hz, -6.849689e+01,  2.792809e+01)
+(  7.650001e+08Hz, -6.846270e+01,  2.753223e+01)
+(  7.700001e+08Hz, -6.843999e+01,  2.778559e+01)
+(  7.750001e+08Hz, -6.845567e+01,  2.725198e+01)
+(  7.800001e+08Hz, -6.859170e+01,  2.733023e+01)
+(  7.850001e+08Hz, -6.853685e+01,  2.743701e+01)
+(  7.900001e+08Hz, -6.831044e+01,  2.719574e+01)
+(  7.950001e+08Hz, -6.842860e+01,  2.626730e+01)
+(  8.000001e+08Hz, -6.838068e+01,  2.712217e+01)
+(  8.050001e+08Hz, -6.864069e+01,  2.687894e+01)
+(  8.100001e+08Hz, -6.842906e+01,  2.721561e+01)
+(  8.150001e+08Hz, -6.856287e+01,  2.756777e+01)
+(  8.200001e+08Hz, -6.855096e+01,  2.739317e+01)
+(  8.250001e+08Hz, -6.853370e+01,  2.710265e+01)
+(  8.300001e+08Hz, -6.850012e+01,  2.668965e+01)
+(  8.350001e+08Hz, -6.838655e+01,  2.564861e+01)
+(  8.400001e+08Hz, -6.843023e+01,  2.598468e+01)
+(  8.450001e+08Hz, -6.841872e+01,  2.587478e+01)
+(  8.500001e+08Hz, -6.841173e+01,  2.615531e+01)
+(  8.550001e+08Hz, -6.846509e+01,  2.548571e+01)
+(  8.600001e+08Hz, -6.838156e+01,  2.599218e+01)
+(  8.650001e+08Hz, -6.845877e+01,  2.633492e+01)
+(  8.700001e+08Hz, -6.848544e+01,  2.580260e+01)
+(  8.750001e+08Hz, -6.849888e+01,  2.618379e+01)
+(  8.800001e+08Hz, -6.838191e+01,  2.620478e+01)
+(  8.850001e+08Hz, -6.838134e+01,  2.546856e+01)
+(  8.900001e+08Hz, -6.827632e+01,  2.444985e+01)
+(  8.950001e+08Hz, -6.834185e+01,  2.441985e+01)
+(  9.000001e+08Hz, -6.845330e+01,  2.301473e+01)
+(  9.050001e+08Hz, -6.840398e+01,  2.345632e+01)
+(  9.100001e+08Hz, -6.847940e+01,  2.287518e+01)
+(  9.150001e+08Hz, -6.841475e+01,  2.382573e+01)
+(  9.200001e+08Hz, -6.846877e+01,  2.387890e+01)
+(  9.250001e+08Hz, -6.852854e+01,  2.342643e+01)
+(  9.300001e+08Hz, -6.855954e+01,  2.415060e+01)
+(  9.350001e+08Hz, -6.847186e+01,  2.514898e+01)
+(  9.400001e+08Hz, -6.851169e+01,  2.380951e+01)
+(  9.450001e+08Hz, -6.851173e+01,  2.363733e+01)
+(  9.500001e+08Hz, -6.840584e+01,  2.329611e+01)
+(  9.550001e+08Hz, -6.847979e+01,  2.215500e+01)
+(  9.600001e+08Hz, -6.854278e+01,  2.190424e+01)
+(  9.650001e+08Hz, -6.837004e+01,  2.213144e+01)
+(  9.700001e+08Hz, -6.852838e+01,  2.140665e+01)
+(  9.750001e+08Hz, -6.852249e+01,  2.222718e+01)
+(  9.800001e+08Hz, -6.862838e+01,  2.287590e+01)
+(  9.850001e+08Hz, -6.874698e+01,  2.290088e+01)
+(  9.900001e+08Hz, -6.851623e+01,  2.410015e+01)
+(  9.950001e+08Hz, -6.849710e+01,  2.302547e+01)
+(  1.000000e+09Hz, -6.838687e+01,  2.089348e+01)
+(  1.025000e+09Hz, -6.846381e+01,  1.859027e+01)
+(  1.050000e+09Hz, -6.859725e+01,  1.945702e+01)
+(  1.075000e+09Hz, -6.856950e+01,  1.654952e+01)
+(  1.100000e+09Hz, -6.870557e+01,  1.656195e+01)
+(  1.125000e+09Hz, -6.865199e+01,  1.491703e+01)
+(  1.150000e+09Hz, -6.885857e+01,  1.394233e+01)
+(  1.175000e+09Hz, -6.881046e+01,  1.034270e+01)
+(  1.200000e+09Hz, -6.895955e+01,  1.069338e+01)
+(  1.225000e+09Hz, -6.894683e+01,  8.497985e+00)
+(  1.250000e+09Hz, -6.936702e+01,  7.000247e+00)
+(  1.275000e+09Hz, -6.937240e+01,  5.068125e+00)
+(  1.300000e+09Hz, -6.950652e+01,  3.079108e+00)
+(  1.325000e+09Hz, -6.952783e+01,  4.202285e-01)
+(  1.350000e+09Hz, -6.981328e+01, -5.322799e-01)
+(  1.375000e+09Hz, -6.984067e+01, -2.530538e+00)
+(  1.400000e+09Hz, -7.002998e+01, -3.155984e+00)
+(  1.425000e+09Hz, -6.971603e+01, -6.083479e+00)
+(  1.450000e+09Hz, -6.997963e+01, -9.698298e+00)
+(  1.475000e+09Hz, -7.014341e+01, -1.119028e+01)
+(  1.500000e+09Hz, -7.012751e+01, -1.562953e+01)
+(  1.525000e+09Hz, -7.089236e+01, -1.750971e+01)
+(  1.550000e+09Hz, -7.030905e+01, -1.800164e+01)
+(  1.575000e+09Hz, -7.037747e+01, -2.219715e+01)
+(  1.600000e+09Hz, -7.044188e+01, -2.609003e+01)
+(  1.625000e+09Hz, -7.062460e+01, -2.735221e+01)
+(  1.650000e+09Hz, -7.039705e+01, -3.290782e+01)
+(  1.675000e+09Hz, -7.087820e+01, -3.398994e+01)
+(  1.700000e+09Hz, -7.049667e+01, -3.517845e+01)
+(  1.725000e+09Hz, -7.043220e+01, -3.885669e+01)
+(  1.750000e+09Hz, -7.012295e+01, -4.242770e+01)
+(  1.775000e+09Hz, -7.000795e+01, -4.588414e+01)
+(  1.800000e+09Hz, -6.981894e+01, -4.934108e+01)
+(  1.825000e+09Hz, -6.970687e+01, -5.376052e+01)
+(  1.850000e+09Hz, -6.991412e+01, -5.497680e+01)
+(  1.875000e+09Hz, -6.922463e+01, -5.819902e+01)
+(  1.900000e+09Hz, -6.910625e+01, -6.119591e+01)
+(  1.925000e+09Hz, -6.890081e+01, -6.511287e+01)
+(  1.950000e+09Hz, -6.872919e+01, -6.789118e+01)
+(  1.975000e+09Hz, -6.855252e+01, -7.096313e+01)
+(  2.000000e+09Hz, -6.820543e+01, -7.270737e+01)
+(  2.025000e+09Hz, -6.786913e+01, -7.773627e+01)
+(  2.050000e+09Hz, -6.786614e+01, -7.750674e+01)
+(  2.075000e+09Hz, -6.739419e+01, -8.010036e+01)
+(  2.100000e+09Hz, -6.726037e+01, -8.354254e+01)
+(  2.125000e+09Hz, -6.687985e+01, -8.556886e+01)
+(  2.150000e+09Hz, -6.672503e+01, -8.737644e+01)
+(  2.175000e+09Hz, -6.645642e+01, -8.839389e+01)
+(  2.200000e+09Hz, -6.612060e+01, -8.999440e+01)
+(  2.225000e+09Hz, -6.589665e+01, -9.263940e+01)
+(  2.250000e+09Hz, -6.548283e+01, -9.404678e+01)
+(  2.275000e+09Hz, -6.545074e+01, -9.647234e+01)
+(  2.300000e+09Hz, -6.508332e+01, -9.830052e+01)
+(  2.325000e+09Hz, -6.489910e+01, -1.000261e+02)
+(  2.350000e+09Hz, -6.466049e+01, -1.000813e+02)
+(  2.375000e+09Hz, -6.438769e+01, -1.020969e+02)
+(  2.400000e+09Hz, -6.410586e+01, -1.027923e+02)
+(  2.425000e+09Hz, -6.390785e+01, -1.045425e+02)
+(  2.450000e+09Hz, -6.378731e+01, -1.069490e+02)
+(  2.475000e+09Hz, -6.380770e+01, -1.066120e+02)
+(  2.500000e+09Hz, -6.338458e+01, -1.073700e+02)
+(  2.525000e+09Hz, -6.325626e+01, -1.076345e+02)
+(  2.550000e+09Hz, -6.296805e+01, -1.104373e+02)
+(  2.575000e+09Hz, -6.272945e+01, -1.092590e+02)
+(  2.600000e+09Hz, -6.244464e+01, -1.103918e+02)
+(  2.625000e+09Hz, -6.220129e+01, -1.121675e+02)
+(  2.650000e+09Hz, -6.199836e+01, -1.138625e+02)
+(  2.675000e+09Hz, -6.186187e+01, -1.146456e+02)
+(  2.700000e+09Hz, -6.180962e+01, -1.156060e+02)
+(  2.725000e+09Hz, -6.161052e+01, -1.167875e+02)
+(  2.750000e+09Hz, -6.170047e+01, -1.156918e+02)
+(  2.775000e+09Hz, -6.134705e+01, -1.169166e+02)
+(  2.800000e+09Hz, -6.113467e+01, -1.176273e+02)
+(  2.825000e+09Hz, -6.092490e+01, -1.177771e+02)
+(  2.850000e+09Hz, -6.078516e+01, -1.186819e+02)
+(  2.875000e+09Hz, -6.067029e+01, -1.197420e+02)
+(  2.900000e+09Hz, -6.045143e+01, -1.194338e+02)
+(  2.925000e+09Hz, -6.001124e+01, -1.198841e+02)
+(  2.950000e+09Hz, -5.997221e+01, -1.222286e+02)
+(  2.975000e+09Hz, -5.982418e+01, -1.222395e+02)
+(  3.000000e+09Hz, -5.960688e+01, -1.232523e+02)
+(  3.025000e+09Hz, -5.950712e+01, -1.244699e+02)
+(  3.050000e+09Hz, -5.961703e+01, -1.260050e+02)
+(  3.075000e+09Hz, -5.932799e+01, -1.235898e+02)
+(  3.100000e+09Hz, -5.898851e+01, -1.251165e+02)
+(  3.125000e+09Hz, -5.875032e+01, -1.270058e+02)
+(  3.150000e+09Hz, -5.883004e+01, -1.277140e+02)
+(  3.175000e+09Hz, -5.874215e+01, -1.285930e+02)
+(  3.200000e+09Hz, -5.849330e+01, -1.284672e+02)
+(  3.225000e+09Hz, -5.845289e+01, -1.295131e+02)
+(  3.250000e+09Hz, -5.822497e+01, -1.304808e+02)
+(  3.275000e+09Hz, -5.852956e+01, -1.333754e+02)
+(  3.300000e+09Hz, -5.810414e+01, -1.302249e+02)
+(  3.325000e+09Hz, -5.792864e+01, -1.308790e+02)
+(  3.350000e+09Hz, -5.774240e+01, -1.324210e+02)
+(  3.375000e+09Hz, -5.766759e+01, -1.341288e+02)
+(  3.400000e+09Hz, -5.790190e+01, -1.344668e+02)
+(  3.425000e+09Hz, -5.749304e+01, -1.340604e+02)
+(  3.450000e+09Hz, -5.750865e+01, -1.358820e+02)
+(  3.475000e+09Hz, -5.734573e+01, -1.350655e+02)
+(  3.500000e+09Hz, -5.714102e+01, -1.363284e+02)
+(  3.525000e+09Hz, -5.743001e+01, -1.372616e+02)
+(  3.550000e+09Hz, -5.720738e+01, -1.372413e+02)
+(  3.575000e+09Hz, -5.693788e+01, -1.395208e+02)
+(  3.600000e+09Hz, -5.702362e+01, -1.369382e+02)
+(  3.625000e+09Hz, -5.694240e+01, -1.386972e+02)
+(  3.650000e+09Hz, -5.655241e+01, -1.382193e+02)
+(  3.675000e+09Hz, -5.671642e+01, -1.401704e+02)
+(  3.700000e+09Hz, -5.663425e+01, -1.380394e+02)
+(  3.725000e+09Hz, -5.625505e+01, -1.397883e+02)
+(  3.750000e+09Hz, -5.615022e+01, -1.401348e+02)
+(  3.775000e+09Hz, -5.606535e+01, -1.423526e+02)
+(  3.800000e+09Hz, -5.600883e+01, -1.426475e+02)
+(  3.825000e+09Hz, -5.622095e+01, -1.410205e+02)
+(  3.850000e+09Hz, -5.559486e+01, -1.434545e+02)
+(  3.875000e+09Hz, -5.562174e+01, -1.452439e+02)
+(  3.900000e+09Hz, -5.563980e+01, -1.454767e+02)
+(  3.925000e+09Hz, -5.541667e+01, -1.455858e+02)
+(  3.950000e+09Hz, -5.549351e+01, -1.478953e+02)
+(  3.975000e+09Hz, -5.522470e+01, -1.478230e+02)
+(  4.000000e+09Hz, -5.524595e+01, -1.493358e+02)
+(  4.025000e+09Hz, -5.521127e+01, -1.508852e+02)
+(  4.050000e+09Hz, -5.536305e+01, -1.494452e+02)
+(  4.075000e+09Hz, -5.522762e+01, -1.494952e+02)
+(  4.100000e+09Hz, -5.501633e+01, -1.506211e+02)
+(  4.125000e+09Hz, -5.474515e+01, -1.523721e+02)
+(  4.150000e+09Hz, -5.484144e+01, -1.548833e+02)
+(  4.175000e+09Hz, -5.507258e+01, -1.536533e+02)
+(  4.200000e+09Hz, -5.525086e+01, -1.511354e+02)
+(  4.225000e+09Hz, -5.465990e+01, -1.534949e+02)
+(  4.250000e+09Hz, -5.484537e+01, -1.565246e+02)
+(  4.275000e+09Hz, -5.459237e+01, -1.546663e+02)
+(  4.300000e+09Hz, -5.482121e+01, -1.582380e+02)
+(  4.325000e+09Hz, -5.453509e+01, -1.561991e+02)
+(  4.350000e+09Hz, -5.441783e+01, -1.573013e+02)
+(  4.375000e+09Hz, -5.433407e+01, -1.568838e+02)
+(  4.400000e+09Hz, -5.429404e+01, -1.608296e+02)
+(  4.425000e+09Hz, -5.437853e+01, -1.579130e+02)
+(  4.450000e+09Hz, -5.441769e+01, -1.583777e+02)
+(  4.475000e+09Hz, -5.411593e+01, -1.605448e+02)
+(  4.500000e+09Hz, -5.417726e+01, -1.608578e+02)
+(  4.525000e+09Hz, -5.404608e+01, -1.613003e+02)
+(  4.550000e+09Hz, -5.409527e+01, -1.622183e+02)
+(  4.575000e+09Hz, -5.395452e+01, -1.644015e+02)
+(  4.600000e+09Hz, -5.399668e+01, -1.649840e+02)
+(  4.625000e+09Hz, -5.410370e+01, -1.626069e+02)
+(  4.650000e+09Hz, -5.369526e+01, -1.626084e+02)
+(  4.675000e+09Hz, -5.328058e+01, -1.638021e+02)
+(  4.700000e+09Hz, -5.312410e+01, -1.665684e+02)
+(  4.725000e+09Hz, -5.357486e+01, -1.687052e+02)
+(  4.750000e+09Hz, -5.323036e+01, -1.672410e+02)
+(  4.775000e+09Hz, -5.345183e+01, -1.707920e+02)
+(  4.800000e+09Hz, -5.381863e+01, -1.683673e+02)
+(  4.825000e+09Hz, -5.348384e+01, -1.700240e+02)
+(  4.850000e+09Hz, -5.355422e+01, -1.758140e+02)
+(  4.875000e+09Hz, -5.353164e+01, -1.665985e+02)
+(  4.900000e+09Hz, -5.334055e+01, -1.696492e+02)
+(  4.925000e+09Hz, -5.314753e+01, -1.692045e+02)
+(  4.950000e+09Hz, -5.288869e+01, -1.734194e+02)
+(  4.975000e+09Hz, -5.248958e+01, -1.750186e+02)
+(  5.000000e+09Hz, -5.352206e+01,  1.787859e+02)
+(  5.025000e+09Hz, -5.276631e+01, -1.728741e+02)
+(  5.050000e+09Hz, -5.269745e+01, -1.745298e+02)
+(  5.075000e+09Hz, -5.265047e+01, -1.749855e+02)
+(  5.100000e+09Hz, -5.278688e+01, -1.762401e+02)
+(  5.125000e+09Hz, -5.326376e+01, -1.736543e+02)
+(  5.150000e+09Hz, -5.253359e+01, -1.796231e+02)
+(  5.175000e+09Hz, -5.247447e+01, -1.763339e+02)
+(  5.200000e+09Hz, -5.232920e+01, -1.779181e+02)
+(  5.225000e+09Hz, -5.234484e+01, -1.768998e+02)
+(  5.250000e+09Hz, -5.221414e+01, -1.764010e+02)
+(  5.275000e+09Hz, -5.185744e+01,  1.790145e+02)
+(  5.300000e+09Hz, -5.204668e+01,  1.760848e+02)
+(  5.325000e+09Hz, -5.243596e+01, -1.768289e+02)
+(  5.350000e+09Hz, -5.212426e+01,  1.766857e+02)
+(  5.375000e+09Hz, -5.218054e+01,  1.775858e+02)
+(  5.400000e+09Hz, -5.286194e+01, -1.768871e+02)
+(  5.425000e+09Hz, -5.146019e+01,  1.798333e+02)
+(  5.450000e+09Hz, -5.187295e+01,  1.763658e+02)
+(  5.475000e+09Hz, -5.234500e+01,  1.743721e+02)
+(  5.500000e+09Hz, -5.213228e+01, -1.792901e+02)
+(  5.525000e+09Hz, -5.170104e+01,  1.757953e+02)
+(  5.550000e+09Hz, -5.193910e+01,  1.793799e+02)
+(  5.575000e+09Hz, -5.136413e+01,  1.776376e+02)
+(  5.600000e+09Hz, -5.129226e+01,  1.767437e+02)
+(  5.625000e+09Hz, -5.147748e+01,  1.732422e+02)
+(  5.650000e+09Hz, -5.154468e+01,  1.734025e+02)
+(  5.675000e+09Hz, -5.217340e+01,  1.752496e+02)
+(  5.700000e+09Hz, -5.139123e+01,  1.793517e+02)
+(  5.725000e+09Hz, -5.079972e+01,  1.746690e+02)
+(  5.750000e+09Hz, -5.083809e+01,  1.747634e+02)
+(  5.775000e+09Hz, -5.100984e+01,  1.734028e+02)
+(  5.800000e+09Hz, -5.045052e+01,  1.729398e+02)
+(  5.825000e+09Hz, -5.076304e+01,  1.702586e+02)
+(  5.850000e+09Hz, -5.088002e+01,  1.719758e+02)
+(  5.875000e+09Hz, -5.028250e+01,  1.729398e+02)
+(  5.900000e+09Hz, -5.044381e+01,  1.743002e+02)
+(  5.925000e+09Hz, -4.992047e+01,  1.731589e+02)
+(  5.950000e+09Hz, -4.981580e+01,  1.688962e+02)
+(  5.975000e+09Hz, -5.036629e+01,  1.679592e+02)
+(  6.000000e+09Hz, -5.082337e+01,  1.666337e+02)
+(  6.025000e+09Hz, -4.986436e+01,  1.695418e+02)
+(  6.050000e+09Hz, -4.971849e+01,  1.654998e+02)
+(  6.075000e+09Hz, -5.069090e+01,  1.676369e+02)
+(  6.100000e+09Hz, -4.949113e+01,  1.690793e+02)
+(  6.125000e+09Hz, -4.923843e+01,  1.693277e+02)
+(  6.150000e+09Hz, -4.920540e+01,  1.649624e+02)
+(  6.175000e+09Hz, -4.955105e+01,  1.639773e+02)
+(  6.200000e+09Hz, -4.920692e+01,  1.652096e+02)
+(  6.225000e+09Hz, -4.945280e+01,  1.643325e+02)
+(  6.250000e+09Hz, -4.961207e+01,  1.617637e+02)
+(  6.275000e+09Hz, -4.938380e+01,  1.637890e+02)
+(  6.300000e+09Hz, -4.953957e+01,  1.603805e+02)
+(  6.325000e+09Hz, -4.926508e+01,  1.622493e+02)
+(  6.350000e+09Hz, -4.919876e+01,  1.611797e+02)
+(  6.375000e+09Hz, -4.892816e+01,  1.633935e+02)
+(  6.400000e+09Hz, -4.892194e+01,  1.608842e+02)
+(  6.425000e+09Hz, -4.894722e+01,  1.596546e+02)
+(  6.450000e+09Hz, -4.900763e+01,  1.607975e+02)
+(  6.475000e+09Hz, -4.899585e+01,  1.618365e+02)
+(  6.500000e+09Hz, -4.928372e+01,  1.589466e+02)
+(  6.525000e+09Hz, -4.939974e+01,  1.626271e+02)
+(  6.550000e+09Hz, -4.829667e+01,  1.622493e+02)
+(  6.575000e+09Hz, -4.834307e+01,  1.578909e+02)
+(  6.600000e+09Hz, -4.877895e+01,  1.605708e+02)
+(  6.625000e+09Hz, -4.828595e+01,  1.601924e+02)
+(  6.650000e+09Hz, -4.816752e+01,  1.561174e+02)
+(  6.675000e+09Hz, -4.842819e+01,  1.577758e+02)
+(  6.700000e+09Hz, -4.829205e+01,  1.571493e+02)
+(  6.725000e+09Hz, -4.837661e+01,  1.561715e+02)
+(  6.750000e+09Hz, -4.804018e+01,  1.580356e+02)
+(  6.775000e+09Hz, -4.794481e+01,  1.569371e+02)
+(  6.800000e+09Hz, -4.773578e+01,  1.539632e+02)
+(  6.825000e+09Hz, -4.799697e+01,  1.552431e+02)
+(  6.850000e+09Hz, -4.763018e+01,  1.553115e+02)
+(  6.875000e+09Hz, -4.742375e+01,  1.525815e+02)
+(  6.900000e+09Hz, -4.809274e+01,  1.529329e+02)
+(  6.925000e+09Hz, -4.792709e+01,  1.541939e+02)
+(  6.950000e+09Hz, -4.774322e+01,  1.543234e+02)
+(  6.975000e+09Hz, -4.717398e+01,  1.537427e+02)
+(  7.000000e+09Hz, -4.720675e+01,  1.513213e+02)
+(  7.025000e+09Hz, -4.707386e+01,  1.501040e+02)
+(  7.050000e+09Hz, -4.719420e+01,  1.481983e+02)
+(  7.075000e+09Hz, -4.729524e+01,  1.523627e+02)
+(  7.100000e+09Hz, -4.705134e+01,  1.502992e+02)
+(  7.125000e+09Hz, -4.715572e+01,  1.497309e+02)
+(  7.150000e+09Hz, -4.688987e+01,  1.491942e+02)
+(  7.175000e+09Hz, -4.681855e+01,  1.476975e+02)
+(  7.200000e+09Hz, -4.666942e+01,  1.481120e+02)
+(  7.225000e+09Hz, -4.680975e+01,  1.467150e+02)
+(  7.250000e+09Hz, -4.695639e+01,  1.473965e+02)
+(  7.275000e+09Hz, -4.654605e+01,  1.453763e+02)
+(  7.300000e+09Hz, -4.661719e+01,  1.454443e+02)
+(  7.325000e+09Hz, -4.631992e+01,  1.454120e+02)
+(  7.350000e+09Hz, -4.631123e+01,  1.437691e+02)
+(  7.375000e+09Hz, -4.614000e+01,  1.449628e+02)
+(  7.400000e+09Hz, -4.610357e+01,  1.419136e+02)
+(  7.425000e+09Hz, -4.607173e+01,  1.422142e+02)
+(  7.450000e+09Hz, -4.638836e+01,  1.419514e+02)
+(  7.475000e+09Hz, -4.612891e+01,  1.417316e+02)
+(  7.500000e+09Hz, -4.591650e+01,  1.399099e+02)
+(  7.525000e+09Hz, -4.585036e+01,  1.395127e+02)
+(  7.550000e+09Hz, -4.570719e+01,  1.383547e+02)
+(  7.575000e+09Hz, -4.592642e+01,  1.377744e+02)
+(  7.600000e+09Hz, -4.588363e+01,  1.376776e+02)
+(  7.625000e+09Hz, -4.568093e+01,  1.384025e+02)
+(  7.650000e+09Hz, -4.561653e+01,  1.361286e+02)
+(  7.675000e+09Hz, -4.552984e+01,  1.364659e+02)
+(  7.700000e+09Hz, -4.550156e+01,  1.356835e+02)
+(  7.725000e+09Hz, -4.544103e+01,  1.338077e+02)
+(  7.750000e+09Hz, -4.542743e+01,  1.336517e+02)
+(  7.775000e+09Hz, -4.543617e+01,  1.336484e+02)
+(  7.800000e+09Hz, -4.524904e+01,  1.327881e+02)
+(  7.825000e+09Hz, -4.526901e+01,  1.315778e+02)
+(  7.850000e+09Hz, -4.524992e+01,  1.313455e+02)
+(  7.875000e+09Hz, -4.541510e+01,  1.308588e+02)
+(  7.900000e+09Hz, -4.510340e+01,  1.309403e+02)
+(  7.925000e+09Hz, -4.500490e+01,  1.294130e+02)
+(  7.950000e+09Hz, -4.504613e+01,  1.281784e+02)
+(  7.975000e+09Hz, -4.508591e+01,  1.276664e+02)
+(  8.000000e+09Hz, -4.503341e+01,  1.284372e+02)
+(  8.025000e+09Hz, -4.499860e+01,  1.263733e+02)
+(  8.050000e+09Hz, -4.491655e+01,  1.266179e+02)
+(  8.075000e+09Hz, -4.468287e+01,  1.256478e+02)
+(  8.100000e+09Hz, -4.462490e+01,  1.248368e+02)
+(  8.125000e+09Hz, -4.460918e+01,  1.244460e+02)
+(  8.150000e+09Hz, -4.453596e+01,  1.230629e+02)
+(  8.175000e+09Hz, -4.456495e+01,  1.215234e+02)
+(  8.200000e+09Hz, -4.472148e+01,  1.215116e+02)
+(  8.225000e+09Hz, -4.455219e+01,  1.218959e+02)
+(  8.250000e+09Hz, -4.437022e+01,  1.207521e+02)
+(  8.275000e+09Hz, -4.442378e+01,  1.201726e+02)
+(  8.300000e+09Hz, -4.426810e+01,  1.194693e+02)
+(  8.325000e+09Hz, -4.425179e+01,  1.185547e+02)
+(  8.350000e+09Hz, -4.430588e+01,  1.178017e+02)
+(  8.375000e+09Hz, -4.418789e+01,  1.168701e+02)
+(  8.400000e+09Hz, -4.406701e+01,  1.167987e+02)
+(  8.425000e+09Hz, -4.404827e+01,  1.154476e+02)
+(  8.450000e+09Hz, -4.397241e+01,  1.148656e+02)
+(  8.475000e+09Hz, -4.401387e+01,  1.141399e+02)
+(  8.500000e+09Hz, -4.384219e+01,  1.134416e+02)
+(  8.525000e+09Hz, -4.383289e+01,  1.118326e+02)
+(  8.550000e+09Hz, -4.390778e+01,  1.114546e+02)
+(  8.575000e+09Hz, -4.376928e+01,  1.108468e+02)
+(  8.600000e+09Hz, -4.375208e+01,  1.106053e+02)
+(  8.625000e+09Hz, -4.368671e+01,  1.091236e+02)
+(  8.650000e+09Hz, -4.360235e+01,  1.087270e+02)
+(  8.675000e+09Hz, -4.359116e+01,  1.078853e+02)
+(  8.700000e+09Hz, -4.354993e+01,  1.069286e+02)
+(  8.725000e+09Hz, -4.355180e+01,  1.059463e+02)
+(  8.750000e+09Hz, -4.346800e+01,  1.060116e+02)
+(  8.775000e+09Hz, -4.343402e+01,  1.048321e+02)
+(  8.800000e+09Hz, -4.337658e+01,  1.041510e+02)
+(  8.825000e+09Hz, -4.341326e+01,  1.032661e+02)
+(  8.850000e+09Hz, -4.332334e+01,  1.025139e+02)
+(  8.875000e+09Hz, -4.333556e+01,  1.018094e+02)
+(  8.900000e+09Hz, -4.329353e+01,  1.009171e+02)
+(  8.925000e+09Hz, -4.321766e+01,  1.001611e+02)
+(  8.950000e+09Hz, -4.316805e+01,  9.943287e+01)
+(  8.975000e+09Hz, -4.319295e+01,  9.845046e+01)
+(  9.000000e+09Hz, -4.323351e+01,  9.798032e+01)
+(  9.025000e+09Hz, -4.304870e+01,  9.748711e+01)
+(  9.050000e+09Hz, -4.302953e+01,  9.621565e+01)
+(  9.075000e+09Hz, -4.302899e+01,  9.587602e+01)
+(  9.100000e+09Hz, -4.299146e+01,  9.496570e+01)
+(  9.125000e+09Hz, -4.292183e+01,  9.411950e+01)
+(  9.150000e+09Hz, -4.285641e+01,  9.316625e+01)
+(  9.175000e+09Hz, -4.288962e+01,  9.268636e+01)
+(  9.200000e+09Hz, -4.288238e+01,  9.188300e+01)
+(  9.225000e+09Hz, -4.278292e+01,  9.098867e+01)
+(  9.250000e+09Hz, -4.278942e+01,  9.032636e+01)
+(  9.275000e+09Hz, -4.277419e+01,  8.949950e+01)
+(  9.300000e+09Hz, -4.271571e+01,  8.897837e+01)
+(  9.325000e+09Hz, -4.267857e+01,  8.812157e+01)
+(  9.350000e+09Hz, -4.273261e+01,  8.720586e+01)
+(  9.375000e+09Hz, -4.267970e+01,  8.668618e+01)
+(  9.400000e+09Hz, -4.272389e+01,  8.616287e+01)
+(  9.425000e+09Hz, -4.258877e+01,  8.560320e+01)
+(  9.450000e+09Hz, -4.260676e+01,  8.493062e+01)
+(  9.475000e+09Hz, -4.246030e+01,  8.428397e+01)
+(  9.500000e+09Hz, -4.252349e+01,  8.322689e+01)
+(  9.525000e+09Hz, -4.248951e+01,  8.247384e+01)
+(  9.550000e+09Hz, -4.254223e+01,  8.237357e+01)
+(  9.575000e+09Hz, -4.245517e+01,  8.160793e+01)
+(  9.600000e+09Hz, -4.229117e+01,  8.039169e+01)
+(  9.625000e+09Hz, -4.242943e+01,  7.990733e+01)
+(  9.650000e+09Hz, -4.241201e+01,  7.929106e+01)
+(  9.675000e+09Hz, -4.234600e+01,  7.843005e+01)
+(  9.700000e+09Hz, -4.238304e+01,  7.825234e+01)
+(  9.725000e+09Hz, -4.227072e+01,  7.757242e+01)
+(  9.750000e+09Hz, -4.225406e+01,  7.701357e+01)
+(  9.775000e+09Hz, -4.222913e+01,  7.581339e+01)
+(  9.800000e+09Hz, -4.220308e+01,  7.509889e+01)
+(  9.825000e+09Hz, -4.214415e+01,  7.499699e+01)
+(  9.850000e+09Hz, -4.216853e+01,  7.404989e+01)
+(  9.875000e+09Hz, -4.214845e+01,  7.348844e+01)
+(  9.900000e+09Hz, -4.209149e+01,  7.266308e+01)
+(  9.925000e+09Hz, -4.203290e+01,  7.219241e+01)
+(  9.950000e+09Hz, -4.218546e+01,  7.157359e+01)
+(  9.975000e+09Hz, -4.208853e+01,  7.153699e+01)
+(  1.000000e+10Hz, -4.199401e+01,  7.060184e+01)
+(  1.002500e+10Hz, -4.202581e+01,  6.990331e+01)
+(  1.005000e+10Hz, -4.197629e+01,  6.854217e+01)
+(  1.007500e+10Hz, -4.196188e+01,  6.862067e+01)
+(  1.010000e+10Hz, -4.202350e+01,  6.797339e+01)
+(  1.012500e+10Hz, -4.193206e+01,  6.690479e+01)
+(  1.015000e+10Hz, -4.203000e+01,  6.677097e+01)
+(  1.017500e+10Hz, -4.199693e+01,  6.632523e+01)
+(  1.020000e+10Hz, -4.195529e+01,  6.580145e+01)
+(  1.022500e+10Hz, -4.189823e+01,  6.509129e+01)
+(  1.025000e+10Hz, -4.190751e+01,  6.383896e+01)
+(  1.027500e+10Hz, -4.202457e+01,  6.427618e+01)
+(  1.030000e+10Hz, -4.187145e+01,  6.373760e+01)
+(  1.032500e+10Hz, -4.182600e+01,  6.320072e+01)
+(  1.035000e+10Hz, -4.183685e+01,  6.178485e+01)